Acenaphthylene
Actelion Java MolfileCreator 2.0

  0  0  0  0  0  0              0 V3000
M  V30 BEGIN CTAB
M  V30 COUNTS 12 14 0 0 0
M  V30 BEGIN ATOM
M  V30 1 C 0.0 0.0 0.0 0
M  V30 2 C 1.2895 -0.7421 0.0 0
M  V30 3 C -1.3139 -0.7421 0.0 0
M  V30 4 C 0.2189 1.545 0.0 0
M  V30 5 C 1.2774 -2.2263 0.0 0
M  V30 6 C 2.7008 -0.2676 0.0 0
M  V30 7 C -1.326 -2.2263 0.0 0
M  V30 8 C 1.5815 2.1655 0.0 0
M  V30 9 C -0.0364 -2.9684 0.0 0
M  V30 10 C 2.6886 -2.6764 0.0 0
M  V30 11 C 2.7738 1.2895 0.0 0
M  V30 12 C 3.5646 -1.472 0.0 0
M  V30 END ATOM
M  V30 BEGIN BOND
M  V30 1 1 1 2
M  V30 2 1 1 3
M  V30 3 2 1 4
M  V30 4 1 2 5
M  V30 5 2 2 6
M  V30 6 2 3 7
M  V30 7 1 4 8
M  V30 8 2 5 9
M  V30 9 1 5 10
M  V30 10 1 6 11
M  V30 11 1 6 12
M  V30 12 1 7 9
M  V30 13 2 8 11
M  V30 14 2 10 12
M  V30 END BOND
M  V30 END CTAB
M  END
>  <Molecule Name>
Acenaphthylene

>  <Order (spectra)>
6

>  <NAME>
Acenaphthylene

>  <Molecular Formula>
C12H8

>  <Monoisotopic Mass>
152.0626

>  <SMILES>
C1=CC2=C3C1=CC=CC3=CC=C2

>  <InChI>
InChI=1S/C12H8/c1-3-9-4-2-6-11-8-7-10(5-1)12(9)11/h1-8H

>  <InChIKey>
HXGDTGSAIMULJN-UHFFFAOYSA-N

>  <Kingdom>
Organic compounds

>  <Superclass>
Benzenoids

>  <Class>
Acenaphthylenes

>  <Subclass>


>  <Parent Level 1>
Acenaphthylenes

>  <Parent Level 2>


>  <Parent Level 3>


>  <cLogP>
3.2746

>  <cLogS>
-4.272

>  <Druglikeness>
-1.7224

>  <NP-class probability>
0.41

>  <SmilesFragFp 3>


>  <MS_READY_SMILES>
C1=CC2=C3C1=CC=CC3=CC=C2

>  <MS_READY_InChI>
InChI=1S/C12H8/c1-3-9-4-2-6-11-8-7-10(5-1)12(9)11/h1-8H

>  <QSAR_READY_SMILES>
C1=CC2=C3C1=CC=CC3=CC=C2

>  <QSAR_READY_InChI>
InChI=1S/C12H8/c1-3-9-4-2-6-11-8-7-10(5-1)12(9)11/h1-8H

>  <DTXSID>
DTXSID3023845

>  <DTXCID>
DTXCID103845

>  <CASRN>
208-96-8

>  <EXPOCAST_MEDIAN_EXPOSURE_PREDICTION_MG/KG-BW/DAY>
2.05E-05

>  <BIOCONCENTRATION_FACTOR_TEST_PRED>
380.189

>  <BOILING_POINT_DEGC_TEST_PRED>
292.903

>  <48HR_DAPHNIA_LC50_MOL/L_TEST_PRED>
2.42E-05

>  <DENSITY_G/CM^3_TEST_PRED>
1.158

>  <DEVTOX_TEST_PRED>
0.71

>  <96HR_FATHEAD_MINNOW_MOL/L_TEST_PRED>
1.49E-06

>  <FLASH_POINT_DEGC_TEST_PRED>
141.457

>  <MELTING_POINT_DEGC_TEST_PRED>
93.493

>  <AMES_MUTAGENICITY_TEST_PRED>
-

>  <ORAL_RAT_LD50_MOL/KG_TEST_PRED>
0.00774462

>  <SURFACE_TENSION_DYN/CM_TEST_PRED>
-

>  <THERMAL_CONDUCTIVITY_MW/(M*K)_TEST_PRED>
-

>  <TETRAHYMENA_PYRIFORMIS_IGC50_MOL/L_TEST_PRED>
6.10E-05

>  <VISCOSITY_CP_CP_TEST_PRED>
4.00867

>  <VAPOR_PRESSURE_MMHG_TEST_PRED>
0.00180717

>  <WATER_SOLUBILITY_MOL/L_TEST_PRED>
1.77E-05

>  <ATMOSPHERIC_HYDROXYLATION_RATE_(AOH)_CM3/MOLECULE*SEC_OPERA_PRED>
1.10E-10

>  <BIOCONCENTRATION_FACTOR_OPERA_PRED>
269.569

>  <BIODEGRADATION_HALF_LIFE_DAYS_DAYS_OPERA_PRED>
37.951

>  <BOILING_POINT_DEGC_OPERA_PRED>
280.041

>  <HENRYS_LAW_ATM-M3/MOLE_OPERA_PRED>
0.000114058

>  <OPERA_KM_DAYS_OPERA_PRED>
3.31174

>  <OCTANOL_AIR_PARTITION_COEFF_LOGKOA_OPERA_PRED>
6.56164

>  <SOIL_ADSORPTION_COEFFICIENT_KOC_L/KG_OPERA_PRED>
5616.4

>  <OCTANOL_WATER_PARTITION_LOGP_OPERA_PRED>
3.94091

>  <MELTING_POINT_DEGC_OPERA_PRED>
92.4506

>  <VAPOR_PRESSURE_MMHG_OPERA_PRED>
0.00660999

>  <WATER_SOLUBILITY_MOL/L_OPERA_PRED>
0.000107342

>  <Shape Index>
0.5

>  <Molecular Flexibility>
0

>  <Molecular Complexity>
0.63799

>  <Electronegative Atoms>
0

>  <Stereo Centers>
0

>  <Rotatable Bonds>
0

>  <Rings Closures>
3

>  <Aromatic Rings>
2

>  <Aromatic Atoms>
10

>  <Amides>
0

>  <Amines>
0

>  <Aromatic Nitrogens>
0

>  <Shape Index 2>
0.5

>  <Molecular Flexibility 2>
0

>  <Molecular Complexity 2>
0.63799

>  <Non-C/H Atoms>
0

>  <Electronegative Atoms 2>
0

>  <Stereo Centers 2>
0

>  <Rotatable Bonds 2>
0

>  <Rings Closures 2>
3

>  <Aromatic Rings 2>
2

>  <Aromatic Atoms 2>
10

>  <sp3-Atoms>
0

>  <Amides 2>
0

>  <Amines 2>
0

>  <Aromatic Nitrogens 2>
0

>  <Basic Nitrogens>
0

$$$$
beta-Hexachlorocyclohexane
Actelion Java MolfileCreator 2.0

  0  0  0  0  0  0              0 V3000
M  V30 BEGIN CTAB
M  V30 COUNTS 12 12 0 0 0
M  V30 BEGIN ATOM
M  V30 1 Cl 0.0 0.0 0.0 0
M  V30 2 C -1.3102 -0.7318 0.0 0 CFG=1
M  V30 3 C -2.6205 0.0236 0.0 0 CFG=2
M  V30 4 C -1.322 -2.2192 0.0 0 CFG=1
M  V30 5 Cl -2.6323 1.5345 0.0 0
M  V30 6 C -3.9308 -0.7082 0.0 0 CFG=1
M  V30 7 Cl -0.0354 -2.9628 0.0 0
M  V30 8 C -2.6323 -2.951 0.0 0 CFG=1
M  V30 9 Cl -5.2411 0.0472 0.0 0
M  V30 10 C -3.9426 -2.1956 0.0 0 CFG=1
M  V30 11 Cl -2.6441 -4.4384 0.0 0
M  V30 12 Cl -5.2529 -2.9274 0.0 0
M  V30 END ATOM
M  V30 BEGIN BOND
M  V30 1 1 2 1 CFG=3
M  V30 2 1 2 3
M  V30 3 1 2 4
M  V30 4 1 3 5 CFG=1
M  V30 5 1 3 6
M  V30 6 1 4 7 CFG=1
M  V30 7 1 4 8
M  V30 8 1 6 9 CFG=3
M  V30 9 1 6 10
M  V30 10 1 8 11 CFG=3
M  V30 11 1 10 12 CFG=1
M  V30 12 1 8 10
M  V30 END BOND
M  V30 BEGIN COLLECTION
M  V30 MDLV30/STEABS ATOMS=(6 2 3 4 6 8 10)
M  V30 END COLLECTION
M  V30 END CTAB
M  END
>  <Molecule Name>
beta-Hexachlorocyclohexane

>  <Order (spectra)>
45

>  <NAME>
beta-Hexachlorocyclohexane

>  <Molecular Formula>
C6H6Cl6

>  <Monoisotopic Mass>
287.860062

>  <SMILES>
Cl[C@H]1[C@H](Cl)[C@@H](Cl)[C@H](Cl)[C@@H](Cl)[C@@H]1Cl

>  <InChI>
InChI=1S/C6H6Cl6/c7-1-2(8)4(10)6(12)5(11)3(1)9/h1-6H

>  <InChIKey>
JLYXXMFPNIAWKQ-CDRYSYESSA-N

>  <Kingdom>
Organic compounds

>  <Superclass>
Organohalogen compounds

>  <Class>
Alkyl halides

>  <Subclass>
Cyclohexyl halides

>  <Parent Level 1>
Cyclohexyl halides

>  <Parent Level 2>


>  <Parent Level 3>


>  <cLogP>
3.762

>  <cLogS>
-4.112

>  <Druglikeness>
-0.92105

>  <NP-class probability>
0.79

>  <SmilesFragFp 3>


>  <MS_READY_SMILES>
ClC1C(Cl)C(Cl)C(Cl)C(Cl)C1Cl

>  <MS_READY_InChI>
InChI=1S/C6H6Cl6/c7-1-2(8)4(10)6(12)5(11)3(1)9/h1-6H

>  <QSAR_READY_SMILES>
ClC1C(Cl)C(Cl)C(Cl)C(Cl)C1Cl

>  <QSAR_READY_InChI>
InChI=1S/C6H6Cl6/c7-1-2(8)4(10)6(12)5(11)3(1)9/h1-6H

>  <DTXSID>
DTXSID7020685

>  <DTXCID>
DTXCID20196535

>  <CASRN>
319-85-7

>  <EXPOCAST_MEDIAN_EXPOSURE_PREDICTION_MG/KG-BW/DAY>
1.92E-10

>  <BIOCONCENTRATION_FACTOR_TEST_PRED>
157.761

>  <BOILING_POINT_DEGC_TEST_PRED>
272.3

>  <48HR_DAPHNIA_LC50_MOL/L_TEST_PRED>
4.38E-05

>  <DENSITY_G/CM^3_TEST_PRED>
1.579

>  <DEVTOX_TEST_PRED>
0.229

>  <96HR_FATHEAD_MINNOW_MOL/L_TEST_PRED>
2.12E-06

>  <FLASH_POINT_DEGC_TEST_PRED>
132.318

>  <MELTING_POINT_DEGC_TEST_PRED>
69.556

>  <AMES_MUTAGENICITY_TEST_PRED>
0.233

>  <ORAL_RAT_LD50_MOL/KG_TEST_PRED>
0.00127938

>  <SURFACE_TENSION_DYN/CM_TEST_PRED>
41.103

>  <THERMAL_CONDUCTIVITY_MW/(M*K)_TEST_PRED>
90.551

>  <TETRAHYMENA_PYRIFORMIS_IGC50_MOL/L_TEST_PRED>
-

>  <VISCOSITY_CP_CP_TEST_PRED>
10.3039

>  <VAPOR_PRESSURE_MMHG_TEST_PRED>
0.016293

>  <WATER_SOLUBILITY_MOL/L_TEST_PRED>
4.84E-05

>  <ATMOSPHERIC_HYDROXYLATION_RATE_(AOH)_CM3/MOLECULE*SEC_OPERA_PRED>
1.66E-13

>  <BIOCONCENTRATION_FACTOR_OPERA_PRED>
1100.89

>  <BIODEGRADATION_HALF_LIFE_DAYS_DAYS_OPERA_PRED>
18.6094

>  <BOILING_POINT_DEGC_OPERA_PRED>
236.383

>  <HENRYS_LAW_ATM-M3/MOLE_OPERA_PRED>
3.21E-06

>  <OPERA_KM_DAYS_OPERA_PRED>
31.0392

>  <OCTANOL_AIR_PARTITION_COEFF_LOGKOA_OPERA_PRED>
8.09186

>  <SOIL_ADSORPTION_COEFFICIENT_KOC_L/KG_OPERA_PRED>
1479.84

>  <OCTANOL_WATER_PARTITION_LOGP_OPERA_PRED>
3.71918

>  <MELTING_POINT_DEGC_OPERA_PRED>
76.7268

>  <VAPOR_PRESSURE_MMHG_OPERA_PRED>
4.24E-05

>  <WATER_SOLUBILITY_MOL/L_OPERA_PRED>
1.53E-05

>  <Shape Index>
0.5

>  <Molecular Flexibility>
0.38657

>  <Molecular Complexity>
0.71045

>  <Electronegative Atoms>
6

>  <Stereo Centers>
0

>  <Rotatable Bonds>
0

>  <Rings Closures>
1

>  <Aromatic Rings>
0

>  <Aromatic Atoms>
0

>  <Amides>
0

>  <Amines>
0

>  <Aromatic Nitrogens>
0

>  <Shape Index 2>
0.5

>  <Molecular Flexibility 2>
0.38657

>  <Molecular Complexity 2>
0.71045

>  <Non-C/H Atoms>
6

>  <Electronegative Atoms 2>
6

>  <Stereo Centers 2>
0

>  <Rotatable Bonds 2>
0

>  <Rings Closures 2>
1

>  <Aromatic Rings 2>
0

>  <Aromatic Atoms 2>
0

>  <sp3-Atoms>
6

>  <Amides 2>
0

>  <Amines 2>
0

>  <Aromatic Nitrogens 2>
0

>  <Basic Nitrogens>
0

$$$$
alpha-1,2,3,4,5,6-Hexachlorocyclohexane
Actelion Java MolfileCreator 2.0

  0  0  0  0  0  0              0 V3000
M  V30 BEGIN CTAB
M  V30 COUNTS 12 12 0 0 0
M  V30 BEGIN ATOM
M  V30 1 Cl 0.0 0.0 0.0 0
M  V30 2 C -1.3102 -0.7318 0.0 0 CFG=1
M  V30 3 C -2.6205 0.0236 0.0 0 CFG=2
M  V30 4 C -1.322 -2.2192 0.0 0 CFG=2
M  V30 5 Cl -2.6323 1.5345 0.0 0
M  V30 6 C -3.9308 -0.7082 0.0 0 CFG=1
M  V30 7 Cl -0.0354 -2.9628 0.0 0
M  V30 8 C -2.6323 -2.951 0.0 0 CFG=2
M  V30 9 Cl -5.2411 0.0472 0.0 0
M  V30 10 C -3.9426 -2.1956 0.0 0 CFG=1
M  V30 11 Cl -2.6441 -4.4384 0.0 0
M  V30 12 Cl -5.2529 -2.9274 0.0 0
M  V30 END ATOM
M  V30 BEGIN BOND
M  V30 1 1 2 1 CFG=3
M  V30 2 1 2 3
M  V30 3 1 2 4
M  V30 4 1 3 5 CFG=1
M  V30 5 1 3 6
M  V30 6 1 4 7 CFG=3
M  V30 7 1 4 8
M  V30 8 1 6 9 CFG=3
M  V30 9 1 6 10
M  V30 10 1 8 11 CFG=1
M  V30 11 1 10 12 CFG=1
M  V30 12 1 8 10
M  V30 END BOND
M  V30 BEGIN COLLECTION
M  V30 MDLV30/STEABS ATOMS=(6 2 3 4 6 8 10)
M  V30 END COLLECTION
M  V30 END CTAB
M  END
>  <Molecule Name>
alpha-1,2,3,4,5,6-Hexachlorocyclohexane

>  <Order (spectra)>
46

>  <NAME>
alpha-1,2,3,4,5,6-Hexachlorocyclohexane

>  <Molecular Formula>
C6H6Cl6

>  <Monoisotopic Mass>
287.860062

>  <SMILES>
Cl[C@H]1[C@H](Cl)[C@@H](Cl)[C@H](Cl)[C@H](Cl)[C@H]1Cl

>  <InChI>
InChI=1S/C6H6Cl6/c7-1-2(8)4(10)6(12)5(11)3(1)9/h1-6H

>  <InChIKey>
JLYXXMFPNIAWKQ-SHFUYGGZSA-N

>  <Kingdom>
Organic compounds

>  <Superclass>
Organohalogen compounds

>  <Class>
Alkyl halides

>  <Subclass>
Cyclohexyl halides

>  <Parent Level 1>
Cyclohexyl halides

>  <Parent Level 2>


>  <Parent Level 3>


>  <cLogP>
3.762

>  <cLogS>
-4.112

>  <Druglikeness>
-0.92105

>  <NP-class probability>
0.79

>  <SmilesFragFp 3>


>  <MS_READY_SMILES>
ClC1C(Cl)C(Cl)C(Cl)C(Cl)C1Cl

>  <MS_READY_InChI>
InChI=1S/C6H6Cl6/c7-1-2(8)4(10)6(12)5(11)3(1)9/h1-6H

>  <QSAR_READY_SMILES>
ClC1C(Cl)C(Cl)C(Cl)C(Cl)C1Cl

>  <QSAR_READY_InChI>
InChI=1S/C6H6Cl6/c7-1-2(8)4(10)6(12)5(11)3(1)9/h1-6H

>  <DTXSID>
DTXSID2020684

>  <DTXCID>
DTXCID00196533

>  <CASRN>
319-84-6

>  <EXPOCAST_MEDIAN_EXPOSURE_PREDICTION_MG/KG-BW/DAY>
2.40E-10

>  <BIOCONCENTRATION_FACTOR_TEST_PRED>
157.761

>  <BOILING_POINT_DEGC_TEST_PRED>
276.233

>  <48HR_DAPHNIA_LC50_MOL/L_TEST_PRED>
4.38E-05

>  <DENSITY_G/CM^3_TEST_PRED>
1.579

>  <DEVTOX_TEST_PRED>
0.229

>  <96HR_FATHEAD_MINNOW_MOL/L_TEST_PRED>
2.12E-06

>  <FLASH_POINT_DEGC_TEST_PRED>
132.318

>  <MELTING_POINT_DEGC_TEST_PRED>
69.556

>  <AMES_MUTAGENICITY_TEST_PRED>
0.233

>  <ORAL_RAT_LD50_MOL/KG_TEST_PRED>
0.00127938

>  <SURFACE_TENSION_DYN/CM_TEST_PRED>
41.103

>  <THERMAL_CONDUCTIVITY_MW/(M*K)_TEST_PRED>
90.551

>  <TETRAHYMENA_PYRIFORMIS_IGC50_MOL/L_TEST_PRED>
-

>  <VISCOSITY_CP_CP_TEST_PRED>
10.3039

>  <VAPOR_PRESSURE_MMHG_TEST_PRED>
0.0106905

>  <WATER_SOLUBILITY_MOL/L_TEST_PRED>
4.84E-05

>  <ATMOSPHERIC_HYDROXYLATION_RATE_(AOH)_CM3/MOLECULE*SEC_OPERA_PRED>
1.66E-13

>  <BIOCONCENTRATION_FACTOR_OPERA_PRED>
1100.89

>  <BIODEGRADATION_HALF_LIFE_DAYS_DAYS_OPERA_PRED>
18.6094

>  <BOILING_POINT_DEGC_OPERA_PRED>
236.383

>  <HENRYS_LAW_ATM-M3/MOLE_OPERA_PRED>
3.21E-06

>  <OPERA_KM_DAYS_OPERA_PRED>
31.0392

>  <OCTANOL_AIR_PARTITION_COEFF_LOGKOA_OPERA_PRED>
8.09186

>  <SOIL_ADSORPTION_COEFFICIENT_KOC_L/KG_OPERA_PRED>
1479.84

>  <OCTANOL_WATER_PARTITION_LOGP_OPERA_PRED>
3.71918

>  <MELTING_POINT_DEGC_OPERA_PRED>
76.7268

>  <VAPOR_PRESSURE_MMHG_OPERA_PRED>
4.24E-05

>  <WATER_SOLUBILITY_MOL/L_OPERA_PRED>
1.53E-05

>  <Shape Index>
0.5

>  <Molecular Flexibility>
0.38657

>  <Molecular Complexity>
0.75181

>  <Electronegative Atoms>
6

>  <Stereo Centers>
0

>  <Rotatable Bonds>
0

>  <Rings Closures>
1

>  <Aromatic Rings>
0

>  <Aromatic Atoms>
0

>  <Amides>
0

>  <Amines>
0

>  <Aromatic Nitrogens>
0

>  <Shape Index 2>
0.5

>  <Molecular Flexibility 2>
0.38657

>  <Molecular Complexity 2>
0.75181

>  <Non-C/H Atoms>
6

>  <Electronegative Atoms 2>
6

>  <Stereo Centers 2>
0

>  <Rotatable Bonds 2>
0

>  <Rings Closures 2>
1

>  <Aromatic Rings 2>
0

>  <Aromatic Atoms 2>
0

>  <sp3-Atoms>
6

>  <Amides 2>
0

>  <Amines 2>
0

>  <Aromatic Nitrogens 2>
0

>  <Basic Nitrogens>
0

$$$$
Lindane
Actelion Java MolfileCreator 2.0

  0  0  0  0  0  0              0 V3000
M  V30 BEGIN CTAB
M  V30 COUNTS 12 12 0 0 0
M  V30 BEGIN ATOM
M  V30 1 Cl 0.0 0.0 0.0 0
M  V30 2 C -1.3102 -0.7318 0.0 0 CFG=1
M  V30 3 C -2.6205 0.0236 0.0 0 CFG=2
M  V30 4 C -1.322 -2.2192 0.0 0 CFG=2
M  V30 5 Cl -2.6323 1.5345 0.0 0
M  V30 6 C -3.9308 -0.7082 0.0 0 CFG=1
M  V30 7 Cl -0.0354 -2.9628 0.0 0
M  V30 8 C -2.6323 -2.951 0.0 0 CFG=2
M  V30 9 Cl -5.2411 0.0472 0.0 0
M  V30 10 C -3.9426 -2.1956 0.0 0 CFG=2
M  V30 11 Cl -2.6441 -4.4384 0.0 0
M  V30 12 Cl -5.2529 -2.9274 0.0 0
M  V30 END ATOM
M  V30 BEGIN BOND
M  V30 1 1 2 1 CFG=3
M  V30 2 1 2 3
M  V30 3 1 2 4
M  V30 4 1 3 5 CFG=1
M  V30 5 1 3 6
M  V30 6 1 4 7 CFG=3
M  V30 7 1 4 8
M  V30 8 1 6 9 CFG=3
M  V30 9 1 6 10
M  V30 10 1 8 11 CFG=1
M  V30 11 1 10 12 CFG=3
M  V30 12 1 8 10
M  V30 END BOND
M  V30 BEGIN COLLECTION
M  V30 MDLV30/STEABS ATOMS=(6 2 3 4 6 8 10)
M  V30 END COLLECTION
M  V30 END CTAB
M  END
>  <Molecule Name>
Lindane

>  <Order (spectra)>
47

>  <NAME>
Lindane

>  <Molecular Formula>
C6H6Cl6

>  <Monoisotopic Mass>
287.860062

>  <SMILES>
Cl[C@H]1[C@H](Cl)[C@@H](Cl)[C@@H](Cl)[C@H](Cl)[C@H]1Cl

>  <InChI>
InChI=1S/C6H6Cl6/c7-1-2(8)4(10)6(12)5(11)3(1)9/h1-6H

>  <InChIKey>
JLYXXMFPNIAWKQ-GNIYUCBRSA-N

>  <Kingdom>
Organic compounds

>  <Superclass>
Organohalogen compounds

>  <Class>
Alkyl halides

>  <Subclass>
Cyclohexyl halides

>  <Parent Level 1>
Cyclohexyl halides

>  <Parent Level 2>


>  <Parent Level 3>


>  <cLogP>
3.762

>  <cLogS>
-4.112

>  <Druglikeness>
-0.92105

>  <NP-class probability>
0.79

>  <SmilesFragFp 3>


>  <MS_READY_SMILES>
ClC1C(Cl)C(Cl)C(Cl)C(Cl)C1Cl

>  <MS_READY_InChI>
InChI=1S/C6H6Cl6/c7-1-2(8)4(10)6(12)5(11)3(1)9/h1-6H

>  <QSAR_READY_SMILES>
ClC1C(Cl)C(Cl)C(Cl)C(Cl)C1Cl

>  <QSAR_READY_InChI>
InChI=1S/C6H6Cl6/c7-1-2(8)4(10)6(12)5(11)3(1)9/h1-6H

>  <DTXSID>
DTXSID2020686

>  <DTXCID>
DTXCID40196532

>  <CASRN>
58-89-9

>  <EXPOCAST_MEDIAN_EXPOSURE_PREDICTION_MG/KG-BW/DAY>
1.20E-10

>  <BIOCONCENTRATION_FACTOR_TEST_PRED>
157.761

>  <BOILING_POINT_DEGC_TEST_PRED>
272.3

>  <48HR_DAPHNIA_LC50_MOL/L_TEST_PRED>
4.38E-05

>  <DENSITY_G/CM^3_TEST_PRED>
1.579

>  <DEVTOX_TEST_PRED>
0.177

>  <96HR_FATHEAD_MINNOW_MOL/L_TEST_PRED>
3.55E-06

>  <FLASH_POINT_DEGC_TEST_PRED>
132.318

>  <MELTING_POINT_DEGC_TEST_PRED>
69.556

>  <AMES_MUTAGENICITY_TEST_PRED>
0.233

>  <ORAL_RAT_LD50_MOL/KG_TEST_PRED>
0.00127938

>  <SURFACE_TENSION_DYN/CM_TEST_PRED>
41.103

>  <THERMAL_CONDUCTIVITY_MW/(M*K)_TEST_PRED>
90.551

>  <TETRAHYMENA_PYRIFORMIS_IGC50_MOL/L_TEST_PRED>
-

>  <VISCOSITY_CP_CP_TEST_PRED>
10.3039

>  <VAPOR_PRESSURE_MMHG_TEST_PRED>
0.016293

>  <WATER_SOLUBILITY_MOL/L_TEST_PRED>
4.84E-05

>  <ATMOSPHERIC_HYDROXYLATION_RATE_(AOH)_CM3/MOLECULE*SEC_OPERA_PRED>
1.66E-13

>  <BIOCONCENTRATION_FACTOR_OPERA_PRED>
1100.89

>  <BIODEGRADATION_HALF_LIFE_DAYS_DAYS_OPERA_PRED>
18.6094

>  <BOILING_POINT_DEGC_OPERA_PRED>
236.383

>  <HENRYS_LAW_ATM-M3/MOLE_OPERA_PRED>
3.21E-06

>  <OPERA_KM_DAYS_OPERA_PRED>
31.0392

>  <OCTANOL_AIR_PARTITION_COEFF_LOGKOA_OPERA_PRED>
8.09186

>  <SOIL_ADSORPTION_COEFFICIENT_KOC_L/KG_OPERA_PRED>
1479.84

>  <OCTANOL_WATER_PARTITION_LOGP_OPERA_PRED>
3.71918

>  <MELTING_POINT_DEGC_OPERA_PRED>
76.7268

>  <VAPOR_PRESSURE_MMHG_OPERA_PRED>
4.24E-05

>  <WATER_SOLUBILITY_MOL/L_OPERA_PRED>
1.53E-05

>  <Shape Index>
0.5

>  <Molecular Flexibility>
0.38657

>  <Molecular Complexity>
0.74997

>  <Electronegative Atoms>
6

>  <Stereo Centers>
0

>  <Rotatable Bonds>
0

>  <Rings Closures>
1

>  <Aromatic Rings>
0

>  <Aromatic Atoms>
0

>  <Amides>
0

>  <Amines>
0

>  <Aromatic Nitrogens>
0

>  <Shape Index 2>
0.5

>  <Molecular Flexibility 2>
0.38657

>  <Molecular Complexity 2>
0.74997

>  <Non-C/H Atoms>
6

>  <Electronegative Atoms 2>
6

>  <Stereo Centers 2>
0

>  <Rotatable Bonds 2>
0

>  <Rings Closures 2>
1

>  <Aromatic Rings 2>
0

>  <Aromatic Atoms 2>
0

>  <sp3-Atoms>
6

>  <Amides 2>
0

>  <Amines 2>
0

>  <Aromatic Nitrogens 2>
0

>  <Basic Nitrogens>
0

$$$$
delta-Hexachlorocyclohexane
Actelion Java MolfileCreator 2.0

  0  0  0  0  0  0              0 V3000
M  V30 BEGIN CTAB
M  V30 COUNTS 12 12 0 0 0
M  V30 BEGIN ATOM
M  V30 1 Cl 0.0 0.0 0.0 0
M  V30 2 C -1.3102 -0.7318 0.0 0 CFG=1
M  V30 3 C -2.6205 0.0236 0.0 0 CFG=2
M  V30 4 C -1.322 -2.2192 0.0 0 CFG=1
M  V30 5 Cl -2.6323 1.5345 0.0 0
M  V30 6 C -3.9308 -0.7082 0.0 0 CFG=1
M  V30 7 Cl -0.0354 -2.9628 0.0 0
M  V30 8 C -2.6323 -2.951 0.0 0 CFG=2
M  V30 9 Cl -5.2411 0.0472 0.0 0
M  V30 10 C -3.9426 -2.1956 0.0 0 CFG=1
M  V30 11 Cl -2.6441 -4.4384 0.0 0
M  V30 12 Cl -5.2529 -2.9274 0.0 0
M  V30 END ATOM
M  V30 BEGIN BOND
M  V30 1 1 2 1 CFG=3
M  V30 2 1 2 3
M  V30 3 1 2 4
M  V30 4 1 3 5 CFG=1
M  V30 5 1 3 6
M  V30 6 1 4 7 CFG=1
M  V30 7 1 4 8
M  V30 8 1 6 9 CFG=3
M  V30 9 1 6 10
M  V30 10 1 8 11 CFG=1
M  V30 11 1 10 12 CFG=1
M  V30 12 1 8 10
M  V30 END BOND
M  V30 BEGIN COLLECTION
M  V30 MDLV30/STEABS ATOMS=(6 2 3 4 6 8 10)
M  V30 END COLLECTION
M  V30 END CTAB
M  END
>  <Molecule Name>
delta-Hexachlorocyclohexane

>  <Order (spectra)>
48

>  <NAME>
delta-Hexachlorocyclohexane

>  <Molecular Formula>
C6H6Cl6

>  <Monoisotopic Mass>
287.860062

>  <SMILES>
Cl[C@H]1[C@H](Cl)[C@@H](Cl)[C@H](Cl)[C@H](Cl)[C@@H]1Cl

>  <InChI>
InChI=1S/C6H6Cl6/c7-1-2(8)4(10)6(12)5(11)3(1)9/h1-6H

>  <InChIKey>
JLYXXMFPNIAWKQ-GPIVLXJGSA-N

>  <Kingdom>
Organic compounds

>  <Superclass>
Organohalogen compounds

>  <Class>
Alkyl halides

>  <Subclass>
Cyclohexyl halides

>  <Parent Level 1>
Cyclohexyl halides

>  <Parent Level 2>


>  <Parent Level 3>


>  <cLogP>
3.762

>  <cLogS>
-4.112

>  <Druglikeness>
-0.92105

>  <NP-class probability>
0.79

>  <SmilesFragFp 3>


>  <MS_READY_SMILES>
ClC1C(Cl)C(Cl)C(Cl)C(Cl)C1Cl

>  <MS_READY_InChI>
InChI=1S/C6H6Cl6/c7-1-2(8)4(10)6(12)5(11)3(1)9/h1-6H

>  <QSAR_READY_SMILES>
ClC1C(Cl)C(Cl)C(Cl)C(Cl)C1Cl

>  <QSAR_READY_InChI>
InChI=1S/C6H6Cl6/c7-1-2(8)4(10)6(12)5(11)3(1)9/h1-6H

>  <DTXSID>
DTXSID5024134

>  <DTXCID>
DTXCID60196534

>  <CASRN>
319-86-8

>  <EXPOCAST_MEDIAN_EXPOSURE_PREDICTION_MG/KG-BW/DAY>
1.31E-07

>  <BIOCONCENTRATION_FACTOR_TEST_PRED>
157.761

>  <BOILING_POINT_DEGC_TEST_PRED>
272.3

>  <48HR_DAPHNIA_LC50_MOL/L_TEST_PRED>
4.38E-05

>  <DENSITY_G/CM^3_TEST_PRED>
1.579

>  <DEVTOX_TEST_PRED>
0.229

>  <96HR_FATHEAD_MINNOW_MOL/L_TEST_PRED>
2.12E-06

>  <FLASH_POINT_DEGC_TEST_PRED>
132.318

>  <MELTING_POINT_DEGC_TEST_PRED>
69.556

>  <AMES_MUTAGENICITY_TEST_PRED>
0.233

>  <ORAL_RAT_LD50_MOL/KG_TEST_PRED>
0.00127938

>  <SURFACE_TENSION_DYN/CM_TEST_PRED>
41.103

>  <THERMAL_CONDUCTIVITY_MW/(M*K)_TEST_PRED>
90.551

>  <TETRAHYMENA_PYRIFORMIS_IGC50_MOL/L_TEST_PRED>
-

>  <VISCOSITY_CP_CP_TEST_PRED>
10.3039

>  <VAPOR_PRESSURE_MMHG_TEST_PRED>
0.016293

>  <WATER_SOLUBILITY_MOL/L_TEST_PRED>
2.82E-05

>  <ATMOSPHERIC_HYDROXYLATION_RATE_(AOH)_CM3/MOLECULE*SEC_OPERA_PRED>
1.66E-13

>  <BIOCONCENTRATION_FACTOR_OPERA_PRED>
1100.89

>  <BIODEGRADATION_HALF_LIFE_DAYS_DAYS_OPERA_PRED>
18.6094

>  <BOILING_POINT_DEGC_OPERA_PRED>
236.383

>  <HENRYS_LAW_ATM-M3/MOLE_OPERA_PRED>
3.21E-06

>  <OPERA_KM_DAYS_OPERA_PRED>
31.0392

>  <OCTANOL_AIR_PARTITION_COEFF_LOGKOA_OPERA_PRED>
8.09186

>  <SOIL_ADSORPTION_COEFFICIENT_KOC_L/KG_OPERA_PRED>
1479.84

>  <OCTANOL_WATER_PARTITION_LOGP_OPERA_PRED>
3.71918

>  <MELTING_POINT_DEGC_OPERA_PRED>
76.7268

>  <VAPOR_PRESSURE_MMHG_OPERA_PRED>
4.24E-05

>  <WATER_SOLUBILITY_MOL/L_OPERA_PRED>
1.53E-05

>  <Shape Index>
0.5

>  <Molecular Flexibility>
0.38657

>  <Molecular Complexity>
0.73647

>  <Electronegative Atoms>
6

>  <Stereo Centers>
0

>  <Rotatable Bonds>
0

>  <Rings Closures>
1

>  <Aromatic Rings>
0

>  <Aromatic Atoms>
0

>  <Amides>
0

>  <Amines>
0

>  <Aromatic Nitrogens>
0

>  <Shape Index 2>
0.5

>  <Molecular Flexibility 2>
0.38657

>  <Molecular Complexity 2>
0.73647

>  <Non-C/H Atoms>
6

>  <Electronegative Atoms 2>
6

>  <Stereo Centers 2>
0

>  <Rotatable Bonds 2>
0

>  <Rings Closures 2>
1

>  <Aromatic Rings 2>
0

>  <Aromatic Atoms 2>
0

>  <sp3-Atoms>
6

>  <Amides 2>
0

>  <Amines 2>
0

>  <Aromatic Nitrogens 2>
0

>  <Basic Nitrogens>
0

$$$$
epsilon-Hexachlorocyclohexane
Actelion Java MolfileCreator 2.0

  0  0  0  0  0  0              0 V3000
M  V30 BEGIN CTAB
M  V30 COUNTS 12 12 0 0 0
M  V30 BEGIN ATOM
M  V30 1 Cl 0.0 0.0 0.0 0
M  V30 2 C -1.3102 -0.7318 0.0 0 CFG=1
M  V30 3 C -2.6205 0.0236 0.0 0 CFG=1
M  V30 4 C -1.322 -2.2192 0.0 0 CFG=1
M  V30 5 Cl -2.6323 1.5345 0.0 0
M  V30 6 C -3.9308 -0.7082 0.0 0 CFG=1
M  V30 7 Cl -0.0354 -2.9628 0.0 0
M  V30 8 C -2.6323 -2.951 0.0 0 CFG=2
M  V30 9 Cl -5.2411 0.0472 0.0 0
M  V30 10 C -3.9426 -2.1956 0.0 0 CFG=1
M  V30 11 Cl -2.6441 -4.4384 0.0 0
M  V30 12 Cl -5.2529 -2.9274 0.0 0
M  V30 END ATOM
M  V30 BEGIN BOND
M  V30 1 1 2 1 CFG=3
M  V30 2 1 2 3
M  V30 3 1 2 4
M  V30 4 1 3 5 CFG=3
M  V30 5 1 3 6
M  V30 6 1 4 7 CFG=1
M  V30 7 1 4 8
M  V30 8 1 6 9 CFG=3
M  V30 9 1 6 10
M  V30 10 1 8 11 CFG=1
M  V30 11 1 10 12 CFG=1
M  V30 12 1 8 10
M  V30 END BOND
M  V30 BEGIN COLLECTION
M  V30 MDLV30/STEABS ATOMS=(6 2 3 4 6 8 10)
M  V30 END COLLECTION
M  V30 END CTAB
M  END
>  <Molecule Name>
epsilon-Hexachlorocyclohexane

>  <Order (spectra)>
49

>  <NAME>
epsilon-Hexachlorocyclohexane

>  <Molecular Formula>
C6H6Cl6

>  <Monoisotopic Mass>
287.860062

>  <SMILES>
Cl[C@H]1[C@@H](Cl)[C@@H](Cl)[C@H](Cl)[C@H](Cl)[C@@H]1Cl

>  <InChI>
InChI=1S/C6H6Cl6/c7-1-2(8)4(10)6(12)5(11)3(1)9/h1-6H

>  <InChIKey>
JLYXXMFPNIAWKQ-DCLYFUHFSA-N

>  <Kingdom>
Organic compounds

>  <Superclass>
Organohalogen compounds

>  <Class>
Alkyl halides

>  <Subclass>
Cyclohexyl halides

>  <Parent Level 1>
Cyclohexyl halides

>  <Parent Level 2>


>  <Parent Level 3>


>  <cLogP>
3.762

>  <cLogS>
-4.112

>  <Druglikeness>
-0.92105

>  <NP-class probability>
0.79

>  <SmilesFragFp 3>


>  <MS_READY_SMILES>
ClC1C(Cl)C(Cl)C(Cl)C(Cl)C1Cl

>  <MS_READY_InChI>
InChI=1S/C6H6Cl6/c7-1-2(8)4(10)6(12)5(11)3(1)9/h1-6H

>  <QSAR_READY_SMILES>
ClC1C(Cl)C(Cl)C(Cl)C(Cl)C1Cl

>  <QSAR_READY_InChI>
InChI=1S/C6H6Cl6/c7-1-2(8)4(10)6(12)5(11)3(1)9/h1-6H

>  <DTXSID>
DTXSID0024135

>  <DTXCID>
DTXCID504135

>  <CASRN>
07/10/6108

>  <EXPOCAST_MEDIAN_EXPOSURE_PREDICTION_MG/KG-BW/DAY>
1.31E-07

>  <BIOCONCENTRATION_FACTOR_TEST_PRED>
157.761

>  <BOILING_POINT_DEGC_TEST_PRED>
272.3

>  <48HR_DAPHNIA_LC50_MOL/L_TEST_PRED>
4.38E-05

>  <DENSITY_G/CM^3_TEST_PRED>
1.579

>  <DEVTOX_TEST_PRED>
0.229

>  <96HR_FATHEAD_MINNOW_MOL/L_TEST_PRED>
2.12E-06

>  <FLASH_POINT_DEGC_TEST_PRED>
132.318

>  <MELTING_POINT_DEGC_TEST_PRED>
69.556

>  <AMES_MUTAGENICITY_TEST_PRED>
0.233

>  <ORAL_RAT_LD50_MOL/KG_TEST_PRED>
0.00127938

>  <SURFACE_TENSION_DYN/CM_TEST_PRED>
41.103

>  <THERMAL_CONDUCTIVITY_MW/(M*K)_TEST_PRED>
90.551

>  <TETRAHYMENA_PYRIFORMIS_IGC50_MOL/L_TEST_PRED>
-

>  <VISCOSITY_CP_CP_TEST_PRED>
10.3039

>  <VAPOR_PRESSURE_MMHG_TEST_PRED>
0.016293

>  <WATER_SOLUBILITY_MOL/L_TEST_PRED>
4.84E-05

>  <ATMOSPHERIC_HYDROXYLATION_RATE_(AOH)_CM3/MOLECULE*SEC_OPERA_PRED>
1.66E-13

>  <BIOCONCENTRATION_FACTOR_OPERA_PRED>
1100.89

>  <BIODEGRADATION_HALF_LIFE_DAYS_DAYS_OPERA_PRED>
18.6094

>  <BOILING_POINT_DEGC_OPERA_PRED>
236.383

>  <HENRYS_LAW_ATM-M3/MOLE_OPERA_PRED>
3.21E-06

>  <OPERA_KM_DAYS_OPERA_PRED>
31.0392

>  <OCTANOL_AIR_PARTITION_COEFF_LOGKOA_OPERA_PRED>
8.09186

>  <SOIL_ADSORPTION_COEFFICIENT_KOC_L/KG_OPERA_PRED>
1479.84

>  <OCTANOL_WATER_PARTITION_LOGP_OPERA_PRED>
3.71918

>  <MELTING_POINT_DEGC_OPERA_PRED>
76.7268

>  <VAPOR_PRESSURE_MMHG_OPERA_PRED>
4.24E-05

>  <WATER_SOLUBILITY_MOL/L_OPERA_PRED>
1.53E-05

>  <Shape Index>
0.5

>  <Molecular Flexibility>
0.38657

>  <Molecular Complexity>
0.74811

>  <Electronegative Atoms>
6

>  <Stereo Centers>
0

>  <Rotatable Bonds>
0

>  <Rings Closures>
1

>  <Aromatic Rings>
0

>  <Aromatic Atoms>
0

>  <Amides>
0

>  <Amines>
0

>  <Aromatic Nitrogens>
0

>  <Shape Index 2>
0.5

>  <Molecular Flexibility 2>
0.38657

>  <Molecular Complexity 2>
0.74811

>  <Non-C/H Atoms>
6

>  <Electronegative Atoms 2>
6

>  <Stereo Centers 2>
0

>  <Rotatable Bonds 2>
0

>  <Rings Closures 2>
1

>  <Aromatic Rings 2>
0

>  <Aromatic Atoms 2>
0

>  <sp3-Atoms>
6

>  <Amides 2>
0

>  <Amines 2>
0

>  <Aromatic Nitrogens 2>
0

>  <Basic Nitrogens>
0

$$$$
alpha-1,2-Dibromo-4-(1,2-dibromoethyl)cyclohexane
Actelion Java MolfileCreator 2.0

  0  0  0  0  0  0              0 V3000
M  V30 BEGIN CTAB
M  V30 COUNTS 12 12 0 0 0
M  V30 BEGIN ATOM
M  V30 1 Br 0.0 0.0 0.0 0
M  V30 2 C -1.3059 0.7529 0.0 0
M  V30 3 C -1.3176 2.2588 0.0 0
M  V30 4 C -2.6118 0.0235 0.0 0
M  V30 5 Br -0.0352 3.0118 0.0 0
M  V30 6 C -2.6235 3.0118 0.0 0
M  V30 7 C -3.9177 0.7764 0.0 0
M  V30 8 C -3.9294 2.2706 0.0 0
M  V30 9 C -5.2236 0.0352 0.0 0
M  V30 10 Br -5.2354 -1.447 0.0 0
M  V30 11 C -6.5295 0.7882 0.0 0
M  V30 12 Br -7.8354 0.047 0.0 0
M  V30 END ATOM
M  V30 BEGIN BOND
M  V30 1 1 1 2
M  V30 2 1 2 3
M  V30 3 1 2 4
M  V30 4 1 3 5
M  V30 5 1 3 6
M  V30 6 1 4 7
M  V30 7 1 6 8
M  V30 8 1 7 9
M  V30 9 1 9 10
M  V30 10 1 9 11
M  V30 11 1 11 12
M  V30 12 1 7 8
M  V30 END BOND
M  V30 END CTAB
M  END
>  <Molecule Name>
alpha-1,2-Dibromo-4-(1,2-dibromoethyl)cyclohexane

>  <Order (spectra)>
123

>  <NAME>
alpha-1,2-Dibromo-4-(1,2-dibromoethyl)cyclohexane

>  <Molecular Formula>
C8H12Br4

>  <Monoisotopic Mass>
423.767244

>  <SMILES>
BrCC(Br)C1CCC(Br)C(Br)C1

>  <InChI>
InChI=1S/C8H12Br4/c9-4-8(12)5-1-2-6(10)7(11)3-5/h5-8H,1-4H2

>  <InChIKey>
PQRRSJBLKOPVJV-UHFFFAOYSA-N

>  <Kingdom>
Organic compounds

>  <Superclass>
Organohalogen compounds

>  <Class>
Alkyl halides

>  <Subclass>
Cyclohexyl halides

>  <Parent Level 1>
Cyclohexyl halides

>  <Parent Level 2>


>  <Parent Level 3>


>  <cLogP>
4.2803

>  <cLogS>
-4.53

>  <Druglikeness>
-16.012

>  <NP-class probability>
0.44

>  <SmilesFragFp 3>


>  <MS_READY_SMILES>
BrCC(Br)C1CCC(Br)C(Br)C1

>  <MS_READY_InChI>
InChI=1S/C8H12Br4/c9-4-8(12)5-1-2-6(10)7(11)3-5/h5-8H,1-4H2

>  <QSAR_READY_SMILES>
BrCC(Br)C1CCC(Br)C(Br)C1

>  <QSAR_READY_InChI>
InChI=1S/C8H12Br4/c9-4-8(12)5-1-2-6(10)7(11)3-5/h5-8H,1-4H2

>  <DTXSID>
DTXSID8024947

>  <DTXCID>
DTXCID204947

>  <CASRN>
3322-93-8

>  <EXPOCAST_MEDIAN_EXPOSURE_PREDICTION_MG/KG-BW/DAY>
4.64E-07

>  <BIOCONCENTRATION_FACTOR_TEST_PRED>
133.968

>  <BOILING_POINT_DEGC_TEST_PRED>
293.453

>  <48HR_DAPHNIA_LC50_MOL/L_TEST_PRED>
4.04E-07

>  <DENSITY_G/CM^3_TEST_PRED>
2.314

>  <DEVTOX_TEST_PRED>
-

>  <96HR_FATHEAD_MINNOW_MOL/L_TEST_PRED>
2.01E-07

>  <FLASH_POINT_DEGC_TEST_PRED>
168.369

>  <MELTING_POINT_DEGC_TEST_PRED>
55.466

>  <AMES_MUTAGENICITY_TEST_PRED>
0.855

>  <ORAL_RAT_LD50_MOL/KG_TEST_PRED>
0.00401791

>  <SURFACE_TENSION_DYN/CM_TEST_PRED>
44.531

>  <THERMAL_CONDUCTIVITY_MW/(M*K)_TEST_PRED>
82.911

>  <TETRAHYMENA_PYRIFORMIS_IGC50_MOL/L_TEST_PRED>
1.34E-06

>  <VISCOSITY_CP_CP_TEST_PRED>
30.8319

>  <VAPOR_PRESSURE_MMHG_TEST_PRED>
0.0021727

>  <WATER_SOLUBILITY_MOL/L_TEST_PRED>
4.10E-06

>  <ATMOSPHERIC_HYDROXYLATION_RATE_(AOH)_CM3/MOLECULE*SEC_OPERA_PRED>
2.60E-11

>  <BIOCONCENTRATION_FACTOR_OPERA_PRED>
1396.09

>  <BIODEGRADATION_HALF_LIFE_DAYS_DAYS_OPERA_PRED>
39.6827

>  <BOILING_POINT_DEGC_OPERA_PRED>
309.2

>  <HENRYS_LAW_ATM-M3/MOLE_OPERA_PRED>
9.22E-06

>  <OPERA_KM_DAYS_OPERA_PRED>
3.02107

>  <OCTANOL_AIR_PARTITION_COEFF_LOGKOA_OPERA_PRED>
8.42433

>  <SOIL_ADSORPTION_COEFFICIENT_KOC_L/KG_OPERA_PRED>
2570.33

>  <OCTANOL_WATER_PARTITION_LOGP_OPERA_PRED>
5.1457

>  <MELTING_POINT_DEGC_OPERA_PRED>
20.1267

>  <VAPOR_PRESSURE_MMHG_OPERA_PRED>
0.106251

>  <WATER_SOLUBILITY_MOL/L_OPERA_PRED>
1.65E-05

>  <Shape Index>
0.66667

>  <Molecular Flexibility>
0.59453

>  <Molecular Complexity>
0.63811

>  <Electronegative Atoms>
4

>  <Stereo Centers>
4

>  <Rotatable Bonds>
2

>  <Rings Closures>
1

>  <Aromatic Rings>
0

>  <Aromatic Atoms>
0

>  <Amides>
0

>  <Amines>
0

>  <Aromatic Nitrogens>
0

>  <Shape Index 2>
0.66667

>  <Molecular Flexibility 2>
0.59453

>  <Molecular Complexity 2>
0.63811

>  <Non-C/H Atoms>
4

>  <Electronegative Atoms 2>
4

>  <Stereo Centers 2>
4

>  <Rotatable Bonds 2>
2

>  <Rings Closures 2>
1

>  <Aromatic Rings 2>
0

>  <Aromatic Atoms 2>
0

>  <sp3-Atoms>
8

>  <Amides 2>
0

>  <Amines 2>
0

>  <Aromatic Nitrogens 2>
0

>  <Basic Nitrogens>
0

$$$$
1,2-Benzanthraquinone
Actelion Java MolfileCreator 2.0

  0  0  0  0  0  0              0 V3000
M  V30 BEGIN CTAB
M  V30 COUNTS 20 23 0 0 0
M  V30 BEGIN ATOM
M  V30 1 O 0.0 0.0 0.0 0
M  V30 2 C -1.31 -0.7317 0.0 0
M  V30 3 C -2.6201 0.0236 0.0 0
M  V30 4 C -1.3218 -2.2188 0.0 0
M  V30 5 C -3.9302 -0.7081 0.0 0
M  V30 6 C -2.6319 1.5343 0.0 0
M  V30 7 C -2.6319 -2.9506 0.0 0
M  V30 8 C -0.0354 -2.9506 0.0 0
M  V30 9 C -3.942 -2.1952 0.0 0
M  V30 10 C -5.2402 0.0472 0.0 0
M  V30 11 C -3.942 2.2896 0.0 0
M  V30 12 C -1.3454 2.2896 0.0 0
M  V30 13 C -2.6437 -4.4377 0.0 0
M  V30 14 C -0.0472 -4.4377 0.0 0
M  V30 15 O -5.252 -2.927 0.0 0
M  V30 16 C -5.252 1.5579 0.0 0
M  V30 17 C -3.9538 3.8003 0.0 0
M  V30 18 C -1.3572 3.8003 0.0 0
M  V30 19 C -1.3572 -5.1694 0.0 0
M  V30 20 C -2.6673 4.5557 0.0 0
M  V30 END ATOM
M  V30 BEGIN BOND
M  V30 1 2 1 2
M  V30 2 1 2 3
M  V30 3 1 2 4
M  V30 4 2 3 5
M  V30 5 1 3 6
M  V30 6 2 4 7
M  V30 7 1 4 8
M  V30 8 1 5 9
M  V30 9 1 5 10
M  V30 10 1 6 11
M  V30 11 2 6 12
M  V30 12 1 7 13
M  V30 13 2 8 14
M  V30 14 2 9 15
M  V30 15 2 10 16
M  V30 16 2 11 17
M  V30 17 1 12 18
M  V30 18 2 13 19
M  V30 19 1 17 20
M  V30 20 1 7 9
M  V30 21 1 11 16
M  V30 22 1 14 19
M  V30 23 2 18 20
M  V30 END BOND
M  V30 END CTAB
M  END
>  <Molecule Name>
1,2-Benzanthraquinone

>  <Order (spectra)>
184

>  <NAME>
1,2-Benzanthraquinone

>  <Molecular Formula>
C18H10O2

>  <Monoisotopic Mass>
258.06808

>  <SMILES>
O=C1C2=CC=CC=C2C(=O)C2=C1C=CC1=C2C=CC=C1

>  <InChI>
InChI=1S/C18H10O2/c19-17-13-7-3-4-8-14(13)18(20)16-12-6-2-1-5-11(12)9-10-15(16)17/h1-10H

>  <InChIKey>
LHMRXAIRPKSGDE-UHFFFAOYSA-N

>  <Kingdom>
Organic compounds

>  <Superclass>
Phenylpropanoids and polyketides

>  <Class>
Angucyclines

>  <Subclass>


>  <Parent Level 1>
Angucyclines

>  <Parent Level 2>


>  <Parent Level 3>


>  <cLogP>
4.2278

>  <cLogS>
-6.336

>  <Druglikeness>
-1.1025

>  <NP-class probability>
0.95

>  <SmilesFragFp 3>


>  <MS_READY_SMILES>
O=C1C2=CC=CC=C2C(=O)C2=C1C=CC1=C2C=CC=C1

>  <MS_READY_InChI>
InChI=1S/C18H10O2/c19-17-13-7-3-4-8-14(13)18(20)16-12-6-2-1-5-11(12)9-10-15(16)17/h1-10H

>  <QSAR_READY_SMILES>
O=C1C2=CC=CC=C2C(=O)C2=C1C=CC1=C2C=CC=C1

>  <QSAR_READY_InChI>
InChI=1S/C18H10O2/c19-17-13-7-3-4-8-14(13)18(20)16-12-6-2-1-5-11(12)9-10-15(16)17/h1-10H

>  <DTXSID>
DTXSID8051916

>  <DTXCID>
DTXCID3030478

>  <CASRN>
2498-66-0

>  <EXPOCAST_MEDIAN_EXPOSURE_PREDICTION_MG/KG-BW/DAY>
3.63E-07

>  <BIOCONCENTRATION_FACTOR_TEST_PRED>
175.792

>  <BOILING_POINT_DEGC_TEST_PRED>
412.023

>  <48HR_DAPHNIA_LC50_MOL/L_TEST_PRED>
7.36E-06

>  <DENSITY_G/CM^3_TEST_PRED>
1.312

>  <DEVTOX_TEST_PRED>
0.569

>  <96HR_FATHEAD_MINNOW_MOL/L_TEST_PRED>
1.58E-06

>  <FLASH_POINT_DEGC_TEST_PRED>
196.275

>  <MELTING_POINT_DEGC_TEST_PRED>
189.241

>  <AMES_MUTAGENICITY_TEST_PRED>
0.366

>  <ORAL_RAT_LD50_MOL/KG_TEST_PRED>
-

>  <SURFACE_TENSION_DYN/CM_TEST_PRED>
-

>  <THERMAL_CONDUCTIVITY_MW/(M*K)_TEST_PRED>
-

>  <TETRAHYMENA_PYRIFORMIS_IGC50_MOL/L_TEST_PRED>
2.61E-05

>  <VISCOSITY_CP_CP_TEST_PRED>
-

>  <VAPOR_PRESSURE_MMHG_TEST_PRED>
1.48E-09

>  <WATER_SOLUBILITY_MOL/L_TEST_PRED>
1.72E-07

>  <ATMOSPHERIC_HYDROXYLATION_RATE_(AOH)_CM3/MOLECULE*SEC_OPERA_PRED>
2.43E-12

>  <BIOCONCENTRATION_FACTOR_OPERA_PRED>
48.8907

>  <BIODEGRADATION_HALF_LIFE_DAYS_DAYS_OPERA_PRED>
44.2445

>  <BOILING_POINT_DEGC_OPERA_PRED>
427.554

>  <HENRYS_LAW_ATM-M3/MOLE_OPERA_PRED>
5.06E-08

>  <OPERA_KM_DAYS_OPERA_PRED>
0.144782

>  <OCTANOL_AIR_PARTITION_COEFF_LOGKOA_OPERA_PRED>
9.74097

>  <SOIL_ADSORPTION_COEFFICIENT_KOC_L/KG_OPERA_PRED>
16744.8

>  <OCTANOL_WATER_PARTITION_LOGP_OPERA_PRED>
4.39915

>  <MELTING_POINT_DEGC_OPERA_PRED>
169.969

>  <VAPOR_PRESSURE_MMHG_OPERA_PRED>
1.51E-09

>  <WATER_SOLUBILITY_MOL/L_OPERA_PRED>
4.70E-06

>  <Shape Index>
0.5

>  <Molecular Flexibility>
0.0094721

>  <Molecular Complexity>
0.83603

>  <Electronegative Atoms>
2

>  <Stereo Centers>
0

>  <Rotatable Bonds>
0

>  <Rings Closures>
4

>  <Aromatic Rings>
3

>  <Aromatic Atoms>
16

>  <Amides>
0

>  <Amines>
0

>  <Aromatic Nitrogens>
0

>  <Shape Index 2>
0.5

>  <Molecular Flexibility 2>
0.0094721

>  <Molecular Complexity 2>
0.83603

>  <Non-C/H Atoms>
2

>  <Electronegative Atoms 2>
2

>  <Stereo Centers 2>
0

>  <Rotatable Bonds 2>
0

>  <Rings Closures 2>
4

>  <Aromatic Rings 2>
3

>  <Aromatic Atoms 2>
16

>  <sp3-Atoms>
0

>  <Amides 2>
0

>  <Amines 2>
0

>  <Aromatic Nitrogens 2>
0

>  <Basic Nitrogens>
0

$$$$
Anthracene
Actelion Java MolfileCreator 2.0

  0  0  0  0  0  0              0 V3000
M  V30 BEGIN CTAB
M  V30 COUNTS 14 16 0 0 0
M  V30 BEGIN ATOM
M  V30 1 C 0.0 0.0 0.0 0
M  V30 2 C -0.0118 -1.4935 0.0 0
M  V30 3 C 1.292 0.7586 0.0 0
M  V30 4 C -1.3157 0.7586 0.0 0
M  V30 5 C 1.2801 -2.2402 0.0 0
M  V30 6 C -1.3275 -2.2402 0.0 0
M  V30 7 C 2.584 0.0237 0.0 0
M  V30 8 C -2.6314 0.0237 0.0 0
M  V30 9 C 2.5721 -1.4698 0.0 0
M  V30 10 C -2.6432 -1.4698 0.0 0
M  V30 11 C 3.876 0.7823 0.0 0
M  V30 12 C 3.8641 -2.2165 0.0 0
M  V30 13 C 5.168 0.0474 0.0 0
M  V30 14 C 5.1561 -1.446 0.0 0
M  V30 END ATOM
M  V30 BEGIN BOND
M  V30 1 1 1 2
M  V30 2 1 1 3
M  V30 3 2 1 4
M  V30 4 1 2 5
M  V30 5 2 2 6
M  V30 6 2 3 7
M  V30 7 1 4 8
M  V30 8 2 5 9
M  V30 9 1 6 10
M  V30 10 1 7 11
M  V30 11 1 9 12
M  V30 12 2 11 13
M  V30 13 2 12 14
M  V30 14 1 7 9
M  V30 15 2 8 10
M  V30 16 1 13 14
M  V30 END BOND
M  V30 END CTAB
M  END
>  <Molecule Name>
Anthracene

>  <Order (spectra)>
5

>  <NAME>
Anthracene

>  <Molecular Formula>
C14H10

>  <Monoisotopic Mass>
178.07825

>  <SMILES>
C1=CC2=CC3=C(C=CC=C3)C=C2C=C1

>  <InChI>
InChI=1S/C14H10/c1-2-6-12-10-14-8-4-3-7-13(14)9-11(12)5-1/h1-10H

>  <InChIKey>
MWPLVEDNUUSJAV-UHFFFAOYSA-N

>  <Kingdom>
Organic compounds

>  <Superclass>
Benzenoids

>  <Class>
Anthracenes

>  <Subclass>


>  <Parent Level 1>
Anthracenes

>  <Parent Level 2>


>  <Parent Level 3>


>  <cLogP>
4.0484

>  <cLogS>
-4.828

>  <Druglikeness>
-2.3575

>  <NP-class probability>
1

>  <SmilesFragFp 3>


>  <MS_READY_SMILES>
C1=CC2=CC3=C(C=CC=C3)C=C2C=C1

>  <MS_READY_InChI>
InChI=1S/C14H10/c1-2-6-12-10-14-8-4-3-7-13(14)9-11(12)5-1/h1-10H

>  <QSAR_READY_SMILES>
C1=CC2=CC3=C(C=CC=C3)C=C2C=C1

>  <QSAR_READY_InChI>
InChI=1S/C14H10/c1-2-6-12-10-14-8-4-3-7-13(14)9-11(12)5-1/h1-10H

>  <DTXSID>
DTXSID0023878

>  <DTXCID>
DTXCID203878

>  <CASRN>
120-12-7

>  <EXPOCAST_MEDIAN_EXPOSURE_PREDICTION_MG/KG-BW/DAY>
4.34E-06

>  <BIOCONCENTRATION_FACTOR_TEST_PRED>
613.762

>  <BOILING_POINT_DEGC_TEST_PRED>
340.391

>  <48HR_DAPHNIA_LC50_MOL/L_TEST_PRED>
4.01E-06

>  <DENSITY_G/CM^3_TEST_PRED>
1.126

>  <DEVTOX_TEST_PRED>
0.644

>  <96HR_FATHEAD_MINNOW_MOL/L_TEST_PRED>
4.31E-06

>  <FLASH_POINT_DEGC_TEST_PRED>
155.569

>  <MELTING_POINT_DEGC_TEST_PRED>
119.759

>  <AMES_MUTAGENICITY_TEST_PRED>
0.603

>  <ORAL_RAT_LD50_MOL/KG_TEST_PRED>
0.0086896

>  <SURFACE_TENSION_DYN/CM_TEST_PRED>
39.414

>  <THERMAL_CONDUCTIVITY_MW/(M*K)_TEST_PRED>
126.581

>  <TETRAHYMENA_PYRIFORMIS_IGC50_MOL/L_TEST_PRED>
0.000055847

>  <VISCOSITY_CP_CP_TEST_PRED>
7.6913

>  <VAPOR_PRESSURE_MMHG_TEST_PRED>
2.30E-05

>  <WATER_SOLUBILITY_MOL/L_TEST_PRED>
3.35E-06

>  <ATMOSPHERIC_HYDROXYLATION_RATE_(AOH)_CM3/MOLECULE*SEC_OPERA_PRED>
1.07E-10

>  <BIOCONCENTRATION_FACTOR_OPERA_PRED>
1839.89

>  <BIODEGRADATION_HALF_LIFE_DAYS_DAYS_OPERA_PRED>
122.522

>  <BOILING_POINT_DEGC_OPERA_PRED>
339.957

>  <HENRYS_LAW_ATM-M3/MOLE_OPERA_PRED>
5.54E-05

>  <OPERA_KM_DAYS_OPERA_PRED>
4.46837

>  <OCTANOL_AIR_PARTITION_COEFF_LOGKOA_OPERA_PRED>
7.55002

>  <SOIL_ADSORPTION_COEFFICIENT_KOC_L/KG_OPERA_PRED>
20375.7

>  <OCTANOL_WATER_PARTITION_LOGP_OPERA_PRED>
4.45094

>  <MELTING_POINT_DEGC_OPERA_PRED>
156.882

>  <VAPOR_PRESSURE_MMHG_OPERA_PRED>
7.09E-06

>  <WATER_SOLUBILITY_MOL/L_OPERA_PRED>
1.43E-06

>  <Shape Index>
0.57143

>  <Molecular Flexibility>
0

>  <Molecular Complexity>
0.56169

>  <Electronegative Atoms>
0

>  <Stereo Centers>
0

>  <Rotatable Bonds>
0

>  <Rings Closures>
3

>  <Aromatic Rings>
3

>  <Aromatic Atoms>
14

>  <Amides>
0

>  <Amines>
0

>  <Aromatic Nitrogens>
0

>  <Shape Index 2>
0.57143

>  <Molecular Flexibility 2>
0

>  <Molecular Complexity 2>
0.56169

>  <Non-C/H Atoms>
0

>  <Electronegative Atoms 2>
0

>  <Stereo Centers 2>
0

>  <Rotatable Bonds 2>
0

>  <Rings Closures 2>
3

>  <Aromatic Rings 2>
3

>  <Aromatic Atoms 2>
14

>  <sp3-Atoms>
0

>  <Amides 2>
0

>  <Amines 2>
0

>  <Aromatic Nitrogens 2>
0

>  <Basic Nitrogens>
0

$$$$
Bumetrizole
Actelion Java MolfileCreator 2.0

  0  0  0  0  0  0              0 V3000
M  V30 BEGIN CTAB
M  V30 COUNTS 22 24 0 0 0
M  V30 BEGIN ATOM
M  V30 1 Cl 0.0 0.0 0.0 0
M  V30 2 C -0.7564 -1.2883 0.0 0
M  V30 3 C -2.2694 -1.2765 0.0 0
M  V30 4 C -0.0236 -2.5767 0.0 0
M  V30 5 C -3.0259 -2.5649 0.0 0
M  V30 6 C -0.7801 -3.8651 0.0 0
M  V30 7 N -4.5034 -2.8604 0.0 0
M  V30 8 C -2.2931 -3.8533 0.0 0
M  V30 9 N -4.6689 -4.338 0.0 0
M  V30 10 N -3.3096 -4.9526 0.0 0
M  V30 11 C -5.981 -5.0708 0.0 0
M  V30 12 C -7.293 -4.3143 0.0 0
M  V30 13 C -5.9928 -6.5601 0.0 0
M  V30 14 O -7.3048 -2.8013 0.0 0
M  V30 15 C -8.605 -5.0472 0.0 0
M  V30 16 C -7.3048 -7.293 0.0 0
M  V30 17 C -8.6169 -6.5365 0.0 0
M  V30 18 C -9.9171 -4.2907 0.0 0
M  V30 19 C -7.3166 -8.7823 0.0 0
M  V30 20 C -10.6736 -5.5791 0.0 0
M  V30 21 C -11.2291 -3.5342 0.0 0
M  V30 22 C -9.1842 -2.9786 0.0 0
M  V30 END ATOM
M  V30 BEGIN BOND
M  V30 1 1 1 2
M  V30 2 2 2 3
M  V30 3 1 2 4
M  V30 4 1 3 5
M  V30 5 2 4 6
M  V30 6 2 5 7
M  V30 7 1 5 8
M  V30 8 1 7 9
M  V30 9 2 8 10
M  V30 10 1 9 11
M  V30 11 2 11 12
M  V30 12 1 11 13
M  V30 13 1 12 14
M  V30 14 1 12 15
M  V30 15 2 13 16
M  V30 16 2 15 17
M  V30 17 1 15 18
M  V30 18 1 16 19
M  V30 19 1 18 20
M  V30 20 1 18 21
M  V30 21 1 18 22
M  V30 22 1 6 8
M  V30 23 1 9 10
M  V30 24 1 16 17
M  V30 END BOND
M  V30 END CTAB
M  END
>  <Molecule Name>
Bumetrizole

>  <Order (spectra)>
30

>  <NAME>
Bumetrizole

>  <Molecular Formula>
C17H18N3OCl

>  <Monoisotopic Mass>
315.113839

>  <SMILES>
CC1=CC(=C(O)C(=C1)N1N=C2C=CC(Cl)=CC2=N1)C(C)(C)C

>  <InChI>
InChI=1S/C17H18ClN3O/c1-10-7-12(17(2,3)4)16(22)15(8-10)21-19-13-6-5-11(18)9-14(13)20-21/h5-9,22H,1-4H3

>  <InChIKey>
OCWYEMOEOGEQAN-UHFFFAOYSA-N

>  <Kingdom>
Organic compounds

>  <Superclass>
Organoheterocyclic compounds

>  <Class>
Azoles

>  <Subclass>
Triazoles

>  <Parent Level 1>
Phenyltriazoles

>  <Parent Level 2>
Phenyl-1,2,3-triazoles

>  <Parent Level 3>


>  <cLogP>
4.522

>  <cLogS>
-4.481

>  <Druglikeness>
-0.7407

>  <NP-class probability>
0.04

>  <SmilesFragFp 3>


>  <MS_READY_SMILES>
CC1=CC(=C(O)C(=C1)N1N=C2C=CC(Cl)=CC2=N1)C(C)(C)C

>  <MS_READY_InChI>
InChI=1S/C17H18ClN3O/c1-10-7-12(17(2,3)4)16(22)15(8-10)21-19-13-6-5-11(18)9-14(13)20-21/h5-9,22H,1-4H3

>  <QSAR_READY_SMILES>
CC1=CC(=C(O)C(=C1)N1N=C2C=CC(Cl)=CC2=N1)C(C)(C)C

>  <QSAR_READY_InChI>
InChI=1S/C17H18ClN3O/c1-10-7-12(17(2,3)4)16(22)15(8-10)21-19-13-6-5-11(18)9-14(13)20-21/h5-9,22H,1-4H3

>  <DTXSID>
DTXSID9036438

>  <DTXCID>
DTXCID7016438

>  <CASRN>
05/11/3896

>  <EXPOCAST_MEDIAN_EXPOSURE_PREDICTION_MG/KG-BW/DAY>
5.89E-06

>  <BIOCONCENTRATION_FACTOR_TEST_PRED>
230.144

>  <BOILING_POINT_DEGC_TEST_PRED>
378.363

>  <48HR_DAPHNIA_LC50_MOL/L_TEST_PRED>
4.61E-06

>  <DENSITY_G/CM^3_TEST_PRED>
1.304

>  <DEVTOX_TEST_PRED>
0.499

>  <96HR_FATHEAD_MINNOW_MOL/L_TEST_PRED>
1.16E-06

>  <FLASH_POINT_DEGC_TEST_PRED>
241.006

>  <MELTING_POINT_DEGC_TEST_PRED>
147.436

>  <AMES_MUTAGENICITY_TEST_PRED>
0.698

>  <ORAL_RAT_LD50_MOL/KG_TEST_PRED>
0.00580764

>  <SURFACE_TENSION_DYN/CM_TEST_PRED>
-

>  <THERMAL_CONDUCTIVITY_MW/(M*K)_TEST_PRED>
-

>  <TETRAHYMENA_PYRIFORMIS_IGC50_MOL/L_TEST_PRED>
-

>  <VISCOSITY_CP_CP_TEST_PRED>
-

>  <VAPOR_PRESSURE_MMHG_TEST_PRED>
1.45E-09

>  <WATER_SOLUBILITY_MOL/L_TEST_PRED>
4.25E-06

>  <ATMOSPHERIC_HYDROXYLATION_RATE_(AOH)_CM3/MOLECULE*SEC_OPERA_PRED>
1.65E-11

>  <BIOCONCENTRATION_FACTOR_OPERA_PRED>
723.62

>  <BIODEGRADATION_HALF_LIFE_DAYS_DAYS_OPERA_PRED>
5.76211

>  <BOILING_POINT_DEGC_OPERA_PRED>
340.826

>  <HENRYS_LAW_ATM-M3/MOLE_OPERA_PRED>
9.67E-09

>  <OPERA_KM_DAYS_OPERA_PRED>
3.99271

>  <OCTANOL_AIR_PARTITION_COEFF_LOGKOA_OPERA_PRED>
10.9949

>  <SOIL_ADSORPTION_COEFFICIENT_KOC_L/KG_OPERA_PRED>
1443.01

>  <OCTANOL_WATER_PARTITION_LOGP_OPERA_PRED>
3.75039

>  <MELTING_POINT_DEGC_OPERA_PRED>
153.971

>  <VAPOR_PRESSURE_MMHG_OPERA_PRED>
1.24E-07

>  <WATER_SOLUBILITY_MOL/L_OPERA_PRED>
7.20E-06

>  <Shape Index>
0.5

>  <Molecular Flexibility>
0.40044

>  <Molecular Complexity>
0.83726

>  <Electronegative Atoms>
5

>  <Stereo Centers>
0

>  <Rotatable Bonds>
2

>  <Rings Closures>
3

>  <Aromatic Rings>
3

>  <Aromatic Atoms>
15

>  <Amides>
0

>  <Amines>
0

>  <Aromatic Nitrogens>
3

>  <Shape Index 2>
0.5

>  <Molecular Flexibility 2>
0.40044

>  <Molecular Complexity 2>
0.83726

>  <Non-C/H Atoms>
5

>  <Electronegative Atoms 2>
5

>  <Stereo Centers 2>
0

>  <Rotatable Bonds 2>
2

>  <Rings Closures 2>
3

>  <Aromatic Rings 2>
3

>  <Aromatic Atoms 2>
15

>  <sp3-Atoms>
6

>  <Amides 2>
0

>  <Amines 2>
0

>  <Aromatic Nitrogens 2>
3

>  <Basic Nitrogens>
0

$$$$
Drometrizole
Actelion Java MolfileCreator 2.0

  0  0  0  0  0  0              0 V3000
M  V30 BEGIN CTAB
M  V30 COUNTS 17 19 0 0 0
M  V30 BEGIN ATOM
M  V30 1 O 0.0 0.0 0.0 0
M  V30 2 C 1.2902 -0.7457 0.0 0
M  V30 3 C 1.2783 -2.2371 0.0 0
M  V30 4 C 2.5804 0.0118 0.0 0
M  V30 5 N -0.0355 -2.9828 0.0 0
M  V30 6 C 2.5685 -2.9828 0.0 0
M  V30 7 C 3.8706 -0.7338 0.0 0
M  V30 8 N -1.4204 -2.3555 0.0 0
M  V30 9 N -0.2012 -4.4624 0.0 0
M  V30 10 C 3.8588 -2.2253 0.0 0
M  V30 11 C -2.4383 -3.4563 0.0 0
M  V30 12 C -1.6808 -4.7583 0.0 0
M  V30 13 C 5.149 -2.971 0.0 0
M  V30 14 C -3.9534 -3.4445 0.0 0
M  V30 15 C -2.4502 -6.0486 0.0 0
M  V30 16 C -4.711 -4.7347 0.0 0
M  V30 17 C -3.9653 -6.0367 0.0 0
M  V30 END ATOM
M  V30 BEGIN BOND
M  V30 1 1 1 2
M  V30 2 2 2 3
M  V30 3 1 2 4
M  V30 4 1 3 5
M  V30 5 1 3 6
M  V30 6 2 4 7
M  V30 7 1 5 8
M  V30 8 1 5 9
M  V30 9 2 6 10
M  V30 10 2 8 11
M  V30 11 2 9 12
M  V30 12 1 10 13
M  V30 13 1 11 14
M  V30 14 1 12 15
M  V30 15 2 14 16
M  V30 16 2 15 17
M  V30 17 1 7 10
M  V30 18 1 11 12
M  V30 19 1 16 17
M  V30 END BOND
M  V30 END CTAB
M  END
>  <Molecule Name>
Drometrizole

>  <Order (spectra)>
36

>  <NAME>
Drometrizole

>  <Molecular Formula>
C13H11N3O

>  <Monoisotopic Mass>
225.090212

>  <SMILES>
CC1=CC(N2N=C3C=CC=CC3=N2)=C(O)C=C1

>  <InChI>
InChI=1S/C13H11N3O/c1-9-6-7-13(17)12(8-9)16-14-10-4-2-3-5-11(10)15-16/h2-8,17H,1H3

>  <InChIKey>
MCPKSFINULVDNX-UHFFFAOYSA-N

>  <Kingdom>
Organic compounds

>  <Superclass>
Organoheterocyclic compounds

>  <Class>
Azoles

>  <Subclass>
Triazoles

>  <Parent Level 1>
Phenyltriazoles

>  <Parent Level 2>
Phenyl-1,2,3-triazoles

>  <Parent Level 3>


>  <cLogP>
2.3341

>  <cLogS>
-2.585

>  <Druglikeness>
2.1868

>  <NP-class probability>
0.02

>  <SmilesFragFp 3>


>  <MS_READY_SMILES>
CC1=CC(N2N=C3C=CC=CC3=N2)=C(O)C=C1

>  <MS_READY_InChI>
InChI=1S/C13H11N3O/c1-9-6-7-13(17)12(8-9)16-14-10-4-2-3-5-11(10)15-16/h2-8,17H,1H3

>  <QSAR_READY_SMILES>
CC1=CC(N2N=C3C=CC=CC3=N2)=C(O)C=C1

>  <QSAR_READY_InChI>
InChI=1S/C13H11N3O/c1-9-6-7-13(17)12(8-9)16-14-10-4-2-3-5-11(10)15-16/h2-8,17H,1H3

>  <DTXSID>
DTXSID1027479

>  <DTXCID>
DTXCID207479

>  <CASRN>
2440-22-4

>  <EXPOCAST_MEDIAN_EXPOSURE_PREDICTION_MG/KG-BW/DAY>
5.66E-05

>  <BIOCONCENTRATION_FACTOR_TEST_PRED>
42.462

>  <BOILING_POINT_DEGC_TEST_PRED>
360.439

>  <48HR_DAPHNIA_LC50_MOL/L_TEST_PRED>
1.95E-05

>  <DENSITY_G/CM^3_TEST_PRED>
1.29

>  <DEVTOX_TEST_PRED>
0.387

>  <96HR_FATHEAD_MINNOW_MOL/L_TEST_PRED>
5.18E-06

>  <FLASH_POINT_DEGC_TEST_PRED>
178.904

>  <MELTING_POINT_DEGC_TEST_PRED>
119.433

>  <AMES_MUTAGENICITY_TEST_PRED>
0.735

>  <ORAL_RAT_LD50_MOL/KG_TEST_PRED>
0.00311889

>  <SURFACE_TENSION_DYN/CM_TEST_PRED>
-

>  <THERMAL_CONDUCTIVITY_MW/(M*K)_TEST_PRED>
-

>  <TETRAHYMENA_PYRIFORMIS_IGC50_MOL/L_TEST_PRED>
-

>  <VISCOSITY_CP_CP_TEST_PRED>
-

>  <VAPOR_PRESSURE_MMHG_TEST_PRED>
2.55E-08

>  <WATER_SOLUBILITY_MOL/L_TEST_PRED>
0.00012331

>  <ATMOSPHERIC_HYDROXYLATION_RATE_(AOH)_CM3/MOLECULE*SEC_OPERA_PRED>
1.59E-11

>  <BIOCONCENTRATION_FACTOR_OPERA_PRED>
22.1489

>  <BIODEGRADATION_HALF_LIFE_DAYS_DAYS_OPERA_PRED>
4.06544

>  <BOILING_POINT_DEGC_OPERA_PRED>
322.083

>  <HENRYS_LAW_ATM-M3/MOLE_OPERA_PRED>
2.81E-08

>  <OPERA_KM_DAYS_OPERA_PRED>
0.370114

>  <OCTANOL_AIR_PARTITION_COEFF_LOGKOA_OPERA_PRED>
9.80151

>  <SOIL_ADSORPTION_COEFFICIENT_KOC_L/KG_OPERA_PRED>
1341.75

>  <OCTANOL_WATER_PARTITION_LOGP_OPERA_PRED>
4.30517

>  <MELTING_POINT_DEGC_OPERA_PRED>
132.043

>  <VAPOR_PRESSURE_MMHG_OPERA_PRED>
8.51E-08

>  <WATER_SOLUBILITY_MOL/L_OPERA_PRED>
7.45E-05

>  <Shape Index>
0.52941

>  <Molecular Flexibility>
0.35219

>  <Molecular Complexity>
0.73783

>  <Electronegative Atoms>
4

>  <Stereo Centers>
0

>  <Rotatable Bonds>
1

>  <Rings Closures>
3

>  <Aromatic Rings>
3

>  <Aromatic Atoms>
15

>  <Amides>
0

>  <Amines>
0

>  <Aromatic Nitrogens>
3

>  <Shape Index 2>
0.52941

>  <Molecular Flexibility 2>
0.35219

>  <Molecular Complexity 2>
0.73783

>  <Non-C/H Atoms>
4

>  <Electronegative Atoms 2>
4

>  <Stereo Centers 2>
0

>  <Rotatable Bonds 2>
1

>  <Rings Closures 2>
3

>  <Aromatic Rings 2>
3

>  <Aromatic Atoms 2>
15

>  <sp3-Atoms>
2

>  <Amides 2>
0

>  <Amines 2>
0

>  <Aromatic Nitrogens 2>
3

>  <Basic Nitrogens>
0

$$$$
2,4-Di-tert-butyl-6-(5-chloro-2H-benzotriazol-2-yl)phenol
Actelion Java MolfileCreator 2.0

  0  0  0  0  0  0              0 V3000
M  V30 BEGIN CTAB
M  V30 COUNTS 25 27 0 0 0
M  V30 BEGIN ATOM
M  V30 1 Cl 0.0 0.0 0.0 0
M  V30 2 C -0.7566 -1.2886 0.0 0
M  V30 3 C -2.2699 -1.2768 0.0 0
M  V30 4 C -0.0236 -2.5773 0.0 0
M  V30 5 C -3.0265 -2.5654 0.0 0
M  V30 6 C -0.7802 -3.8659 0.0 0
M  V30 7 N -4.5043 -2.861 0.0 0
M  V30 8 C -2.2935 -3.8541 0.0 0
M  V30 9 N -4.6699 -4.3388 0.0 0
M  V30 10 N -3.3103 -4.9536 0.0 0
M  V30 11 C -5.9822 -5.0718 0.0 0
M  V30 12 C -7.2945 -4.3152 0.0 0
M  V30 13 C -5.994 -6.5615 0.0 0
M  V30 14 O -7.3063 -2.8019 0.0 0
M  V30 15 C -8.6068 -5.0482 0.0 0
M  V30 16 C -7.3063 -7.2945 0.0 0
M  V30 17 C -8.6186 -6.5378 0.0 0
M  V30 18 C -9.9191 -4.2915 0.0 0
M  V30 19 C -7.3181 -8.7841 0.0 0
M  V30 20 C -10.6757 -5.5802 0.0 0
M  V30 21 C -11.2314 -3.5349 0.0 0
M  V30 22 C -9.1861 -2.9792 0.0 0
M  V30 23 C -5.8285 -8.7723 0.0 0
M  V30 24 C -7.3299 -10.2738 0.0 0
M  V30 25 C -8.8314 -8.7723 0.0 0
M  V30 END ATOM
M  V30 BEGIN BOND
M  V30 1 1 1 2
M  V30 2 2 2 3
M  V30 3 1 2 4
M  V30 4 1 3 5
M  V30 5 2 4 6
M  V30 6 2 5 7
M  V30 7 1 5 8
M  V30 8 1 7 9
M  V30 9 2 8 10
M  V30 10 1 9 11
M  V30 11 2 11 12
M  V30 12 1 11 13
M  V30 13 1 12 14
M  V30 14 1 12 15
M  V30 15 2 13 16
M  V30 16 2 15 17
M  V30 17 1 15 18
M  V30 18 1 16 19
M  V30 19 1 18 20
M  V30 20 1 18 21
M  V30 21 1 18 22
M  V30 22 1 19 23
M  V30 23 1 19 24
M  V30 24 1 19 25
M  V30 25 1 6 8
M  V30 26 1 9 10
M  V30 27 1 16 17
M  V30 END BOND
M  V30 END CTAB
M  END
>  <Molecule Name>
2,4-Di-tert-butyl-6-(5-chloro-2H-benzotriazol-2-yl)phenol

>  <Order (spectra)>
38

>  <NAME>
2,4-Di-tert-butyl-6-(5-chloro-2H-benzotriazol-2-yl)phenol

>  <Molecular Formula>
C20H24N3OCl

>  <Monoisotopic Mass>
357.160789

>  <SMILES>
CC(C)(C)C1=CC(N2N=C3C=CC(Cl)=CC3=N2)=C(O)C(=C1)C(C)(C)C

>  <InChI>
InChI=1S/C20H24ClN3O/c1-19(2,3)12-9-14(20(4,5)6)18(25)17(10-12)24-22-15-8-7-13(21)11-16(15)23-24/h7-11,25H,1-6H3

>  <InChIKey>
UWSMKYBKUPAEJQ-UHFFFAOYSA-N

>  <Kingdom>
Organic compounds

>  <Superclass>
Organoheterocyclic compounds

>  <Class>
Azoles

>  <Subclass>
Triazoles

>  <Parent Level 1>
Phenyltriazoles

>  <Parent Level 2>
Phenyl-1,2,3-triazoles

>  <Parent Level 3>


>  <cLogP>
5.76

>  <cLogS>
-5.297

>  <Druglikeness>
-0.7407

>  <NP-class probability>
0.04

>  <SmilesFragFp 3>


>  <MS_READY_SMILES>
CC(C)(C)C1=CC(N2N=C3C=CC(Cl)=CC3=N2)=C(O)C(=C1)C(C)(C)C

>  <MS_READY_InChI>
InChI=1S/C20H24ClN3O/c1-19(2,3)12-9-14(20(4,5)6)18(25)17(10-12)24-22-15-8-7-13(21)11-16(15)23-24/h7-11,25H,1-6H3

>  <QSAR_READY_SMILES>
CC(C)(C)C1=CC(N2N=C3C=CC(Cl)=CC3=N2)=C(O)C(=C1)C(C)(C)C

>  <QSAR_READY_InChI>
InChI=1S/C20H24ClN3O/c1-19(2,3)12-9-14(20(4,5)6)18(25)17(10-12)24-22-15-8-7-13(21)11-16(15)23-24/h7-11,25H,1-6H3

>  <DTXSID>
DTXSID4038893

>  <DTXCID>
DTXCID2018893

>  <CASRN>
3864-99-1

>  <EXPOCAST_MEDIAN_EXPOSURE_PREDICTION_MG/KG-BW/DAY>
1.35E-07

>  <BIOCONCENTRATION_FACTOR_TEST_PRED>
451.856

>  <BOILING_POINT_DEGC_TEST_PRED>
392.85

>  <48HR_DAPHNIA_LC50_MOL/L_TEST_PRED>
1.81E-06

>  <DENSITY_G/CM^3_TEST_PRED>
1.239

>  <DEVTOX_TEST_PRED>
0.482

>  <96HR_FATHEAD_MINNOW_MOL/L_TEST_PRED>
2.69E-07

>  <FLASH_POINT_DEGC_TEST_PRED>
248.446

>  <MELTING_POINT_DEGC_TEST_PRED>
154.236

>  <AMES_MUTAGENICITY_TEST_PRED>
0.03

>  <ORAL_RAT_LD50_MOL/KG_TEST_PRED>
0.00618016

>  <SURFACE_TENSION_DYN/CM_TEST_PRED>
-

>  <THERMAL_CONDUCTIVITY_MW/(M*K)_TEST_PRED>
-

>  <TETRAHYMENA_PYRIFORMIS_IGC50_MOL/L_TEST_PRED>
-

>  <VISCOSITY_CP_CP_TEST_PRED>
-

>  <VAPOR_PRESSURE_MMHG_TEST_PRED>
1.13E-09

>  <WATER_SOLUBILITY_MOL/L_TEST_PRED>
4.25E-07

>  <ATMOSPHERIC_HYDROXYLATION_RATE_(AOH)_CM3/MOLECULE*SEC_OPERA_PRED>
1.67E-11

>  <BIOCONCENTRATION_FACTOR_OPERA_PRED>
3701.46

>  <BIODEGRADATION_HALF_LIFE_DAYS_DAYS_OPERA_PRED>
14.2841

>  <BOILING_POINT_DEGC_OPERA_PRED>
341.01

>  <HENRYS_LAW_ATM-M3/MOLE_OPERA_PRED>
4.83E-08

>  <OPERA_KM_DAYS_OPERA_PRED>
5.24941

>  <OCTANOL_AIR_PARTITION_COEFF_LOGKOA_OPERA_PRED>
10.5578

>  <SOIL_ADSORPTION_COEFFICIENT_KOC_L/KG_OPERA_PRED>
12099.6

>  <OCTANOL_WATER_PARTITION_LOGP_OPERA_PRED>
3.85411

>  <MELTING_POINT_DEGC_OPERA_PRED>
130.892

>  <VAPOR_PRESSURE_MMHG_OPERA_PRED>
5.26E-08

>  <WATER_SOLUBILITY_MOL/L_OPERA_PRED>
3.22E-05

>  <Shape Index>
0.44

>  <Molecular Flexibility>
0.42716

>  <Molecular Complexity>
0.84708

>  <Electronegative Atoms>
5

>  <Stereo Centers>
0

>  <Rotatable Bonds>
3

>  <Rings Closures>
3

>  <Aromatic Rings>
3

>  <Aromatic Atoms>
15

>  <Amides>
0

>  <Amines>
0

>  <Aromatic Nitrogens>
3

>  <Shape Index 2>
0.44

>  <Molecular Flexibility 2>
0.42716

>  <Molecular Complexity 2>
0.84708

>  <Non-C/H Atoms>
5

>  <Electronegative Atoms 2>
5

>  <Stereo Centers 2>
0

>  <Rotatable Bonds 2>
3

>  <Rings Closures 2>
3

>  <Aromatic Rings 2>
3

>  <Aromatic Atoms 2>
15

>  <sp3-Atoms>
9

>  <Amides 2>
0

>  <Amines 2>
0

>  <Aromatic Nitrogens 2>
3

>  <Basic Nitrogens>
0

$$$$
Octrizole
Actelion Java MolfileCreator 2.0

  0  0  0  0  0  0              0 V3000
M  V30 BEGIN CTAB
M  V30 COUNTS 24 26 0 0 0
M  V30 BEGIN ATOM
M  V30 1 O 0.0 0.0 0.0 0
M  V30 2 C -1.3041 -0.7401 0.0 0
M  V30 3 C -2.6082 0.0117 0.0 0
M  V30 4 C -1.3158 -2.2205 0.0 0
M  V30 5 N -2.62 1.5156 0.0 0
M  V30 6 C -3.9124 -0.7284 0.0 0
M  V30 7 C -2.62 -2.9607 0.0 0
M  V30 8 N -1.4216 2.4085 0.0 0
M  V30 9 N -3.8419 2.4085 0.0 0
M  V30 10 C -3.9241 -2.2088 0.0 0
M  V30 11 C -1.8915 3.8419 0.0 0
M  V30 12 C -3.3954 3.8419 0.0 0
M  V30 13 C -5.2283 -2.9489 0.0 0
M  V30 14 C -1.1514 5.146 0.0 0
M  V30 15 C -4.1591 5.146 0.0 0
M  V30 16 C -5.24 -4.4293 0.0 0
M  V30 17 C -6.7321 -2.9372 0.0 0
M  V30 18 C -5.9802 -1.6448 0.0 0
M  V30 19 C -1.9033 6.4502 0.0 0
M  V30 20 C -3.4189 6.4502 0.0 0
M  V30 21 C -6.5441 -5.1695 0.0 0
M  V30 22 C -7.2961 -3.8654 0.0 0
M  V30 23 C -7.8483 -5.9097 0.0 0
M  V30 24 C -5.804 -6.4502 0.0 0
M  V30 END ATOM
M  V30 BEGIN BOND
M  V30 1 1 1 2
M  V30 2 2 2 3
M  V30 3 1 2 4
M  V30 4 1 3 5
M  V30 5 1 3 6
M  V30 6 2 4 7
M  V30 7 1 5 8
M  V30 8 1 5 9
M  V30 9 2 6 10
M  V30 10 2 8 11
M  V30 11 2 9 12
M  V30 12 1 10 13
M  V30 13 1 11 14
M  V30 14 1 12 15
M  V30 15 1 13 16
M  V30 16 1 13 17
M  V30 17 1 13 18
M  V30 18 2 14 19
M  V30 19 2 15 20
M  V30 20 1 16 21
M  V30 21 1 21 22
M  V30 22 1 21 23
M  V30 23 1 21 24
M  V30 24 1 7 10
M  V30 25 1 11 12
M  V30 26 1 19 20
M  V30 END BOND
M  V30 END CTAB
M  END
>  <Molecule Name>
Octrizole

>  <Order (spectra)>
39

>  <NAME>
Octrizole

>  <Molecular Formula>
C20H25N3O

>  <Monoisotopic Mass>
323.199762

>  <SMILES>
CC(C)(C)CC(C)(C)C1=CC(N2N=C3C=CC=CC3=N2)=C(O)C=C1

>  <InChI>
InChI=1S/C20H25N3O/c1-19(2,3)13-20(4,5)14-10-11-18(24)17(12-14)23-21-15-8-6-7-9-16(15)22-23/h6-12,24H,13H2,1-5H3

>  <InChIKey>
IYAZLDLPUNDVAG-UHFFFAOYSA-N

>  <Kingdom>
Organic compounds

>  <Superclass>
Organoheterocyclic compounds

>  <Class>
Azoles

>  <Subclass>
Triazoles

>  <Parent Level 1>
Phenyltriazoles

>  <Parent Level 2>
Phenyl-1,2,3-triazoles

>  <Parent Level 3>


>  <cLogP>
5.265

>  <cLogS>
-4.278

>  <Druglikeness>
-2.3104

>  <NP-class probability>
0.01

>  <SmilesFragFp 3>


>  <MS_READY_SMILES>
CC(C)(C)CC(C)(C)C1=CC(N2N=C3C=CC=CC3=N2)=C(O)C=C1

>  <MS_READY_InChI>
InChI=1S/C20H25N3O/c1-19(2,3)13-20(4,5)14-10-11-18(24)17(12-14)23-21-15-8-6-7-9-16(15)22-23/h6-12,24H,13H2,1-5H3

>  <QSAR_READY_SMILES>
CC(C)(C)CC(C)(C)C1=CC(N2N=C3C=CC=CC3=N2)=C(O)C=C1

>  <QSAR_READY_InChI>
InChI=1S/C20H25N3O/c1-19(2,3)13-20(4,5)14-10-11-18(24)17(12-14)23-21-15-8-6-7-9-16(15)22-23/h6-12,24H,13H2,1-5H3

>  <DTXSID>
DTXSID9027522

>  <DTXCID>
DTXCID107522

>  <CASRN>
3147-75-9

>  <EXPOCAST_MEDIAN_EXPOSURE_PREDICTION_MG/KG-BW/DAY>
1.10E-09

>  <BIOCONCENTRATION_FACTOR_TEST_PRED>
188.365

>  <BOILING_POINT_DEGC_TEST_PRED>
367.1

>  <48HR_DAPHNIA_LC50_MOL/L_TEST_PRED>
3.71E-06

>  <DENSITY_G/CM^3_TEST_PRED>
1.195

>  <DEVTOX_TEST_PRED>
0.498

>  <96HR_FATHEAD_MINNOW_MOL/L_TEST_PRED>
5.86E-07

>  <FLASH_POINT_DEGC_TEST_PRED>
240.499

>  <MELTING_POINT_DEGC_TEST_PRED>
131.196

>  <AMES_MUTAGENICITY_TEST_PRED>
0.18

>  <ORAL_RAT_LD50_MOL/KG_TEST_PRED>
0.00924698

>  <SURFACE_TENSION_DYN/CM_TEST_PRED>
-

>  <THERMAL_CONDUCTIVITY_MW/(M*K)_TEST_PRED>
-

>  <TETRAHYMENA_PYRIFORMIS_IGC50_MOL/L_TEST_PRED>
-

>  <VISCOSITY_CP_CP_TEST_PRED>
-

>  <VAPOR_PRESSURE_MMHG_TEST_PRED>
1.19E-09

>  <WATER_SOLUBILITY_MOL/L_TEST_PRED>
1.87E-06

>  <ATMOSPHERIC_HYDROXYLATION_RATE_(AOH)_CM3/MOLECULE*SEC_OPERA_PRED>
1.67E-11

>  <BIOCONCENTRATION_FACTOR_OPERA_PRED>
246.757

>  <BIODEGRADATION_HALF_LIFE_DAYS_DAYS_OPERA_PRED>
5.34341

>  <BOILING_POINT_DEGC_OPERA_PRED>
340.115

>  <HENRYS_LAW_ATM-M3/MOLE_OPERA_PRED>
5.25E-08

>  <OPERA_KM_DAYS_OPERA_PRED>
3.71409

>  <OCTANOL_AIR_PARTITION_COEFF_LOGKOA_OPERA_PRED>
10.8165

>  <SOIL_ADSORPTION_COEFFICIENT_KOC_L/KG_OPERA_PRED>
787.224

>  <OCTANOL_WATER_PARTITION_LOGP_OPERA_PRED>
4.01789

>  <MELTING_POINT_DEGC_OPERA_PRED>
118.916

>  <VAPOR_PRESSURE_MMHG_OPERA_PRED>
4.48E-08

>  <WATER_SOLUBILITY_MOL/L_OPERA_PRED>
5.34E-05

>  <Shape Index>
0.5

>  <Molecular Flexibility>
0.50716

>  <Molecular Complexity>
0.78235

>  <Electronegative Atoms>
4

>  <Stereo Centers>
0

>  <Rotatable Bonds>
4

>  <Rings Closures>
3

>  <Aromatic Rings>
3

>  <Aromatic Atoms>
15

>  <Amides>
0

>  <Amines>
0

>  <Aromatic Nitrogens>
3

>  <Shape Index 2>
0.5

>  <Molecular Flexibility 2>
0.50716

>  <Molecular Complexity 2>
0.78235

>  <Non-C/H Atoms>
4

>  <Electronegative Atoms 2>
4

>  <Stereo Centers 2>
0

>  <Rotatable Bonds 2>
4

>  <Rings Closures 2>
3

>  <Aromatic Rings 2>
3

>  <Aromatic Atoms 2>
15

>  <sp3-Atoms>
9

>  <Amides 2>
0

>  <Amines 2>
0

>  <Aromatic Nitrogens 2>
3

>  <Basic Nitrogens>
0

$$$$
Tebuthiuron
Actelion Java MolfileCreator 2.0

  0  0  0  0  0  0              0 V3000
M  V30 BEGIN CTAB
M  V30 COUNTS 15 15 0 0 0
M  V30 BEGIN ATOM
M  V30 1 S 0.0 0.0 0.0 0
M  V30 2 C -1.3833 -0.6029 0.0 0
M  V30 3 C 0.9931 -1.0995 0.0 0
M  V30 4 N -1.2414 -2.0808 0.0 0
M  V30 5 N -2.6956 0.1537 0.0 0
M  V30 6 N 0.2364 -2.3882 0.0 0
M  V30 7 C 2.471 -0.934 0.0 0
M  V30 8 C -4.008 -0.5911 0.0 0
M  V30 9 C -2.7075 1.667 0.0 0
M  V30 10 C 2.3055 0.5675 0.0 0
M  V30 11 C 3.9489 -0.7685 0.0 0
M  V30 12 C 2.6129 -2.4119 0.0 0
M  V30 13 O -4.0198 -2.0808 0.0 0
M  V30 14 N -5.3204 0.1655 0.0 0
M  V30 15 C -6.6328 -0.5793 0.0 0
M  V30 END ATOM
M  V30 BEGIN BOND
M  V30 1 1 1 2
M  V30 2 1 1 3
M  V30 3 2 2 4
M  V30 4 1 2 5
M  V30 5 2 3 6
M  V30 6 1 3 7
M  V30 7 1 5 8
M  V30 8 1 5 9
M  V30 9 1 7 10
M  V30 10 1 7 11
M  V30 11 1 7 12
M  V30 12 2 8 13
M  V30 13 1 8 14
M  V30 14 1 14 15
M  V30 15 1 4 6
M  V30 END BOND
M  V30 END CTAB
M  END
>  <Molecule Name>
Tebuthiuron

>  <Order (spectra)>
253

>  <NAME>
Tebuthiuron

>  <Molecular Formula>
C9H16N4OS

>  <Monoisotopic Mass>
228.104481

>  <SMILES>
CNC(=O)N(C)C1=NN=C(S1)C(C)(C)C

>  <InChI>
InChI=1S/C9H16N4OS/c1-9(2,3)6-11-12-8(15-6)13(5)7(14)10-4/h1-5H3,(H,10,14)

>  <InChIKey>
HBPDKDSFLXWOAE-UHFFFAOYSA-N

>  <Kingdom>
Organic compounds

>  <Superclass>
Organoheterocyclic compounds

>  <Class>
Azoles

>  <Subclass>
Thiadiazoles

>  <Parent Level 1>
Aminothiadiazoles

>  <Parent Level 2>
2-amino-1,3,4-thiadiazoles

>  <Parent Level 3>
1,3,4-thiadiazol-2-ylureas

>  <cLogP>
1.7666

>  <cLogS>
-2.48

>  <Druglikeness>
0.6902

>  <NP-class probability>
0.02

>  <SmilesFragFp 3>


>  <MS_READY_SMILES>
CNC(=O)N(C)C1=NN=C(S1)C(C)(C)C

>  <MS_READY_InChI>
InChI=1S/C9H16N4OS/c1-9(2,3)6-11-12-8(15-6)13(5)7(14)10-4/h1-5H3,(H,10,14)

>  <QSAR_READY_SMILES>
CNC(=O)N(C)C1=NN=C(S1)C(C)(C)C

>  <QSAR_READY_InChI>
InChI=1S/C9H16N4OS/c1-9(2,3)6-11-12-8(15-6)13(5)7(14)10-4/h1-5H3,(H,10,14)

>  <DTXSID>
DTXSID3024316

>  <DTXCID>
DTXCID704316

>  <CASRN>
34014-18-1

>  <EXPOCAST_MEDIAN_EXPOSURE_PREDICTION_MG/KG-BW/DAY>
3.91E-07

>  <BIOCONCENTRATION_FACTOR_TEST_PRED>
9.18333

>  <BOILING_POINT_DEGC_TEST_PRED>
340.382

>  <48HR_DAPHNIA_LC50_MOL/L_TEST_PRED>
0.00011722

>  <DENSITY_G/CM^3_TEST_PRED>
1.306

>  <DEVTOX_TEST_PRED>
0.583

>  <96HR_FATHEAD_MINNOW_MOL/L_TEST_PRED>
-

>  <FLASH_POINT_DEGC_TEST_PRED>
200.928

>  <MELTING_POINT_DEGC_TEST_PRED>
121.539

>  <AMES_MUTAGENICITY_TEST_PRED>
-

>  <ORAL_RAT_LD50_MOL/KG_TEST_PRED>
0.00688652

>  <SURFACE_TENSION_DYN/CM_TEST_PRED>
-

>  <THERMAL_CONDUCTIVITY_MW/(M*K)_TEST_PRED>
-

>  <TETRAHYMENA_PYRIFORMIS_IGC50_MOL/L_TEST_PRED>
-

>  <VISCOSITY_CP_CP_TEST_PRED>
-

>  <VAPOR_PRESSURE_MMHG_TEST_PRED>
5.64E-07

>  <WATER_SOLUBILITY_MOL/L_TEST_PRED>
0.00409261

>  <ATMOSPHERIC_HYDROXYLATION_RATE_(AOH)_CM3/MOLECULE*SEC_OPERA_PRED>
1.78E-11

>  <BIOCONCENTRATION_FACTOR_OPERA_PRED>
3.67787

>  <BIODEGRADATION_HALF_LIFE_DAYS_DAYS_OPERA_PRED>
4.69326

>  <BOILING_POINT_DEGC_OPERA_PRED>
323.037

>  <HENRYS_LAW_ATM-M3/MOLE_OPERA_PRED>
1.20E-10

>  <OPERA_KM_DAYS_OPERA_PRED>
0.125541

>  <OCTANOL_AIR_PARTITION_COEFF_LOGKOA_OPERA_PRED>
10.158

>  <SOIL_ADSORPTION_COEFFICIENT_KOC_L/KG_OPERA_PRED>
67.7834

>  <OCTANOL_WATER_PARTITION_LOGP_OPERA_PRED>
1.78757

>  <MELTING_POINT_DEGC_OPERA_PRED>
168.432

>  <VAPOR_PRESSURE_MMHG_OPERA_PRED>
0.000002003

>  <WATER_SOLUBILITY_MOL/L_OPERA_PRED>
0.0108377

>  <Shape Index>
0.6

>  <Molecular Flexibility>
0.62017

>  <Molecular Complexity>
0.63962

>  <Electronegative Atoms>
6

>  <Stereo Centers>
0

>  <Rotatable Bonds>
2

>  <Rings Closures>
1

>  <Aromatic Rings>
1

>  <Aromatic Atoms>
5

>  <Amides>
2

>  <Amines>
0

>  <Aromatic Nitrogens>
2

>  <Shape Index 2>
0.6

>  <Molecular Flexibility 2>
0.62017

>  <Molecular Complexity 2>
0.63962

>  <Non-C/H Atoms>
6

>  <Electronegative Atoms 2>
6

>  <Stereo Centers 2>
0

>  <Rotatable Bonds 2>
2

>  <Rings Closures 2>
1

>  <Aromatic Rings 2>
1

>  <Aromatic Atoms 2>
5

>  <sp3-Atoms>
6

>  <Amides 2>
2

>  <Amines 2>
0

>  <Aromatic Nitrogens 2>
2

>  <Basic Nitrogens>
0

$$$$
Pyraclostrobin
Actelion Java MolfileCreator 2.0

  0  0  0  0  0  0              0 V3000
M  V30 BEGIN CTAB
M  V30 COUNTS 27 29 0 0 0
M  V30 BEGIN ATOM
M  V30 1 Cl 0.0 0.0 0.0 0
M  V30 2 C 0.6025 1.3823 0.0 0
M  V30 3 C 2.0793 1.5477 0.0 0
M  V30 4 C -0.2953 2.611 0.0 0
M  V30 5 C 2.6819 2.93 0.0 0
M  V30 6 C 0.3071 3.9933 0.0 0
M  V30 7 C 1.784 4.1587 0.0 0
M  V30 8 N 2.3865 5.541 0.0 0
M  V30 9 N 3.8397 5.86 0.0 0
M  V30 10 C 1.6304 6.8525 0.0 0
M  V30 11 C 3.9815 7.3605 0.0 0
M  V30 12 C 2.6228 7.9749 0.0 0
M  V30 13 O 5.2693 8.1166 0.0 0
M  V30 14 C 6.5571 7.3723 0.0 0
M  V30 15 C 7.8449 8.1403 0.0 0
M  V30 16 C 9.1327 7.3959 0.0 0
M  V30 17 C 7.8331 9.6525 0.0 0
M  V30 18 N 9.1209 5.9073 0.0 0
M  V30 19 C 10.4205 8.1521 0.0 0
M  V30 20 C 9.1209 10.4087 0.0 0
M  V30 21 O 10.4087 5.163 0.0 0
M  V30 22 C 7.8094 5.163 0.0 0
M  V30 23 C 10.4087 9.6644 0.0 0
M  V30 24 C 11.6965 5.9191 0.0 0
M  V30 25 O 7.7976 3.6743 0.0 0
M  V30 26 O 6.498 5.9191 0.0 0
M  V30 27 C 5.1866 5.1748 0.0 0
M  V30 END ATOM
M  V30 BEGIN BOND
M  V30 1 1 1 2
M  V30 2 2 2 3
M  V30 3 1 2 4
M  V30 4 1 3 5
M  V30 5 2 4 6
M  V30 6 2 5 7
M  V30 7 1 7 8
M  V30 8 1 8 9
M  V30 9 1 8 10
M  V30 10 2 9 11
M  V30 11 2 10 12
M  V30 12 1 11 13
M  V30 13 1 13 14
M  V30 14 1 14 15
M  V30 15 2 15 16
M  V30 16 1 15 17
M  V30 17 1 16 18
M  V30 18 1 16 19
M  V30 19 2 17 20
M  V30 20 1 18 21
M  V30 21 1 18 22
M  V30 22 2 19 23
M  V30 23 1 21 24
M  V30 24 2 22 25
M  V30 25 1 22 26
M  V30 26 1 26 27
M  V30 27 1 6 7
M  V30 28 1 11 12
M  V30 29 1 20 23
M  V30 END BOND
M  V30 END CTAB
M  END
>  <Molecule Name>
Pyraclostrobin

>  <Order (spectra)>
257

>  <NAME>
Pyraclostrobin

>  <Molecular Formula>
C19H18N3O4Cl

>  <Monoisotopic Mass>
387.098584

>  <SMILES>
CON(C(=O)OC)C1=C(COC2=NN(C=C2)C2=CC=C(Cl)C=C2)C=CC=C1

>  <InChI>
InChI=1S/C19H18ClN3O4/c1-25-19(24)23(26-2)17-6-4-3-5-14(17)13-27-18-11-12-22(21-18)16-9-7-15(20)8-10-16/h3-12H,13H2,1-2H3

>  <InChIKey>
HZRSNVGNWUDEFX-UHFFFAOYSA-N

>  <Kingdom>
Organic compounds

>  <Superclass>
Organoheterocyclic compounds

>  <Class>
Azoles

>  <Subclass>
Pyrazoles

>  <Parent Level 1>
Phenylpyrazoles

>  <Parent Level 2>


>  <Parent Level 3>


>  <cLogP>
2.9199

>  <cLogS>
-4.1

>  <Druglikeness>
0.52092

>  <NP-class probability>
0.03

>  <SmilesFragFp 3>


>  <MS_READY_SMILES>
CON(C(=O)OC)C1=C(COC2=NN(C=C2)C2=CC=C(Cl)C=C2)C=CC=C1

>  <MS_READY_InChI>
InChI=1S/C19H18ClN3O4/c1-25-19(24)23(26-2)17-6-4-3-5-14(17)13-27-18-11-12-22(21-18)16-9-7-15(20)8-10-16/h3-12H,13H2,1-2H3

>  <QSAR_READY_SMILES>
CON(C(=O)OC)C1=C(COC2=NN(C=C2)C2=CC=C(Cl)C=C2)C=CC=C1

>  <QSAR_READY_InChI>
InChI=1S/C19H18ClN3O4/c1-25-19(24)23(26-2)17-6-4-3-5-14(17)13-27-18-11-12-22(21-18)16-9-7-15(20)8-10-16/h3-12H,13H2,1-2H3

>  <DTXSID>
DTXSID7032638

>  <DTXCID>
DTXCID5012638

>  <CASRN>
175013-18-0

>  <EXPOCAST_MEDIAN_EXPOSURE_PREDICTION_MG/KG-BW/DAY>
1.48E-07

>  <BIOCONCENTRATION_FACTOR_TEST_PRED>
-

>  <BOILING_POINT_DEGC_TEST_PRED>
465.144

>  <48HR_DAPHNIA_LC50_MOL/L_TEST_PRED>
-

>  <DENSITY_G/CM^3_TEST_PRED>
1.41

>  <DEVTOX_TEST_PRED>
0.41

>  <96HR_FATHEAD_MINNOW_MOL/L_TEST_PRED>
-

>  <FLASH_POINT_DEGC_TEST_PRED>
176.408

>  <MELTING_POINT_DEGC_TEST_PRED>
102.24

>  <AMES_MUTAGENICITY_TEST_PRED>
0.587

>  <ORAL_RAT_LD50_MOL/KG_TEST_PRED>
-

>  <SURFACE_TENSION_DYN/CM_TEST_PRED>
-

>  <THERMAL_CONDUCTIVITY_MW/(M*K)_TEST_PRED>
-

>  <TETRAHYMENA_PYRIFORMIS_IGC50_MOL/L_TEST_PRED>
-

>  <VISCOSITY_CP_CP_TEST_PRED>
-

>  <VAPOR_PRESSURE_MMHG_TEST_PRED>
1.50E-09

>  <WATER_SOLUBILITY_MOL/L_TEST_PRED>
2.09E-05

>  <ATMOSPHERIC_HYDROXYLATION_RATE_(AOH)_CM3/MOLECULE*SEC_OPERA_PRED>
1.75E-11

>  <BIOCONCENTRATION_FACTOR_OPERA_PRED>
174.446

>  <BIODEGRADATION_HALF_LIFE_DAYS_DAYS_OPERA_PRED>
5.15004

>  <BOILING_POINT_DEGC_OPERA_PRED>
335.991

>  <HENRYS_LAW_ATM-M3/MOLE_OPERA_PRED>
1.49E-07

>  <OPERA_KM_DAYS_OPERA_PRED>
1.7981

>  <OCTANOL_AIR_PARTITION_COEFF_LOGKOA_OPERA_PRED>
11.7081

>  <SOIL_ADSORPTION_COEFFICIENT_KOC_L/KG_OPERA_PRED>
1622.29

>  <OCTANOL_WATER_PARTITION_LOGP_OPERA_PRED>
3.98987

>  <MELTING_POINT_DEGC_OPERA_PRED>
116.214

>  <VAPOR_PRESSURE_MMHG_OPERA_PRED>
8.48E-09

>  <WATER_SOLUBILITY_MOL/L_OPERA_PRED>
4.91E-06

>  <Shape Index>
0.59259

>  <Molecular Flexibility>
0.50118

>  <Molecular Complexity>
0.81339

>  <Electronegative Atoms>
8

>  <Stereo Centers>
0

>  <Rotatable Bonds>
7

>  <Rings Closures>
3

>  <Aromatic Rings>
3

>  <Aromatic Atoms>
17

>  <Amides>
0

>  <Amines>
0

>  <Aromatic Nitrogens>
2

>  <Shape Index 2>
0.59259

>  <Molecular Flexibility 2>
0.50118

>  <Molecular Complexity 2>
0.81339

>  <Non-C/H Atoms>
8

>  <Electronegative Atoms 2>
8

>  <Stereo Centers 2>
0

>  <Rotatable Bonds 2>
7

>  <Rings Closures 2>
3

>  <Aromatic Rings 2>
3

>  <Aromatic Atoms 2>
17

>  <sp3-Atoms>
6

>  <Amides 2>
0

>  <Amines 2>
0

>  <Aromatic Nitrogens 2>
2

>  <Basic Nitrogens>
0

$$$$
Carfentrazone-ethyl
Actelion Java MolfileCreator 2.0

  0  0  0  0  0  0              0 V3000
M  V30 BEGIN CTAB
M  V30 COUNTS 26 27 0 0 0
M  V30 BEGIN ATOM
M  V30 1 Cl 0.0 0.0 0.0 0
M  V30 2 C -0.0118 -1.4919 0.0 0
M  V30 3 C -1.3261 -2.226 0.0 0
M  V30 4 C 1.2787 -2.226 0.0 0
M  V30 5 C -1.3379 -3.7179 0.0 0
M  V30 6 C -2.6404 -1.4682 0.0 0
M  V30 7 C 1.2669 -3.7179 0.0 0
M  V30 8 C -0.0473 -4.452 0.0 0
M  V30 9 C -3.9547 -2.2023 0.0 0 CFG=2
M  V30 10 F 2.5575 -4.452 0.0 0
M  V30 11 N -0.0592 -5.9439 0.0 0
M  V30 12 Cl -3.9665 -3.6942 0.0 0
M  V30 13 C -5.269 -1.4445 0.0 0
M  V30 14 N -1.2906 -6.8201 0.0 0
M  V30 15 C 1.1485 -6.8201 0.0 0
M  V30 16 O -5.2808 0.071 0.0 0
M  V30 17 O -6.5833 -2.1786 0.0 0
M  V30 18 C -0.8406 -8.241 0.0 0
M  V30 19 O 2.5693 -6.3465 0.0 0
M  V30 20 N 0.6749 -8.241 0.0 0
M  V30 21 C -7.8976 -1.4208 0.0 0
M  V30 22 C -1.7405 -9.4487 0.0 0
M  V30 23 C 1.5511 -9.4487 0.0 0
M  V30 24 C -9.2119 -2.1549 0.0 0
M  V30 25 F 0.9235 -10.8104 0.0 0
M  V30 26 F 3.0311 -9.2829 0.0 0
M  V30 END ATOM
M  V30 BEGIN BOND
M  V30 1 1 1 2
M  V30 2 2 2 3
M  V30 3 1 2 4
M  V30 4 1 3 5
M  V30 5 1 3 6
M  V30 6 2 4 7
M  V30 7 2 5 8
M  V30 8 1 6 9
M  V30 9 1 7 10
M  V30 10 1 8 11
M  V30 11 1 9 12 CFG=3
M  V30 12 1 9 13
M  V30 13 1 11 14
M  V30 14 1 11 15
M  V30 15 2 13 16
M  V30 16 1 13 17
M  V30 17 2 14 18
M  V30 18 2 15 19
M  V30 19 1 15 20
M  V30 20 1 17 21
M  V30 21 1 18 22
M  V30 22 1 20 23
M  V30 23 1 21 24
M  V30 24 1 23 25
M  V30 25 1 23 26
M  V30 26 1 7 8
M  V30 27 1 18 20
M  V30 END BOND
M  V30 BEGIN COLLECTION
M  V30 MDLV30/STERAC1 ATOMS=(1 9)
M  V30 END COLLECTION
M  V30 END CTAB
M  END
>  <Molecule Name>
Carfentrazone-ethyl

>  <Order (spectra)>
283

>  <NAME>
Carfentrazone-ethyl

>  <Molecular Formula>
C15H14N3O3Cl2F3

>  <Monoisotopic Mass>
411.03643

>  <SMILES>
CCOC(=O)C(Cl)CC1=C(Cl)C=C(F)C(=C1)N1N=C(C)N(C(F)F)C1=O

>  <InChI>
InChI=1S/C15H14Cl2F3N3O3/c1-3-26-13(24)10(17)4-8-5-12(11(18)6-9(8)16)23-15(25)22(14(19)20)7(2)21-23/h5-6,10,14H,3-4H2,1-2H3/t10-/m0/s1

>  <InChIKey>
MLKCGVHIFJBRCD-UHFFFAOYSA-N

>  <Kingdom>
Organic compounds

>  <Superclass>
Organoheterocyclic compounds

>  <Class>
Azoles

>  <Subclass>
Triazoles

>  <Parent Level 1>
Phenyltriazoles

>  <Parent Level 2>
Phenyl-1,2,4-triazoles

>  <Parent Level 3>


>  <cLogP>
3.7252

>  <cLogS>
-4.607

>  <Druglikeness>
-6.3519

>  <NP-class probability>
0.04

>  <SmilesFragFp 3>


>  <MS_READY_SMILES>
CCOC(=O)C(Cl)CC1=C(Cl)C=C(F)C(=C1)N1N=C(C)N(C(F)F)C1=O

>  <MS_READY_InChI>
InChI=1S/C15H14Cl2F3N3O3/c1-3-26-13(24)10(17)4-8-5-12(11(18)6-9(8)16)23-15(25)22(14(19)20)7(2)21-23/h5-6,10,14H,3-4H2,1-2H3/t10-/m0/s1

>  <QSAR_READY_SMILES>
CCOC(=O)C(Cl)CC1=C(Cl)C=C(F)C(=C1)N1N=C(C)N(C(F)F)C1=O

>  <QSAR_READY_InChI>
InChI=1S/C15H14Cl2F3N3O3/c1-3-26-13(24)10(17)4-8-5-12(11(18)6-9(8)16)23-15(25)22(14(19)20)7(2)21-23/h5-6,10,14H,3-4H2,1-2H3/t10-/m0/s1

>  <DTXSID>
DTXSID4032532

>  <DTXCID>
DTXCID2012532

>  <CASRN>
128639-02-1

>  <EXPOCAST_MEDIAN_EXPOSURE_PREDICTION_MG/KG-BW/DAY>
6.25E-07

>  <BIOCONCENTRATION_FACTOR_TEST_PRED>
9.86279

>  <BOILING_POINT_DEGC_TEST_PRED>
-

>  <48HR_DAPHNIA_LC50_MOL/L_TEST_PRED>
6.14E-06

>  <DENSITY_G/CM^3_TEST_PRED>
1.593

>  <DEVTOX_TEST_PRED>
1.163

>  <96HR_FATHEAD_MINNOW_MOL/L_TEST_PRED>
-

>  <FLASH_POINT_DEGC_TEST_PRED>
235.033

>  <MELTING_POINT_DEGC_TEST_PRED>
135.454

>  <AMES_MUTAGENICITY_TEST_PRED>
0.679

>  <ORAL_RAT_LD50_MOL/KG_TEST_PRED>
0.00405509

>  <SURFACE_TENSION_DYN/CM_TEST_PRED>
-

>  <THERMAL_CONDUCTIVITY_MW/(M*K)_TEST_PRED>
-

>  <TETRAHYMENA_PYRIFORMIS_IGC50_MOL/L_TEST_PRED>
-

>  <VISCOSITY_CP_CP_TEST_PRED>
-

>  <VAPOR_PRESSURE_MMHG_TEST_PRED>
2.58E-08

>  <WATER_SOLUBILITY_MOL/L_TEST_PRED>
1.12E-05

>  <ATMOSPHERIC_HYDROXYLATION_RATE_(AOH)_CM3/MOLECULE*SEC_OPERA_PRED>
2.16E-11

>  <BIOCONCENTRATION_FACTOR_OPERA_PRED>
192.141

>  <BIODEGRADATION_HALF_LIFE_DAYS_DAYS_OPERA_PRED>
4.88739

>  <BOILING_POINT_DEGC_OPERA_PRED>
352.496

>  <HENRYS_LAW_ATM-M3/MOLE_OPERA_PRED>
2.24E-09

>  <OPERA_KM_DAYS_OPERA_PRED>
4.52345

>  <OCTANOL_AIR_PARTITION_COEFF_LOGKOA_OPERA_PRED>
9.6425

>  <SOIL_ADSORPTION_COEFFICIENT_KOC_L/KG_OPERA_PRED>
1193.19

>  <OCTANOL_WATER_PARTITION_LOGP_OPERA_PRED>
3.36057

>  <MELTING_POINT_DEGC_OPERA_PRED>
-21.9765

>  <VAPOR_PRESSURE_MMHG_OPERA_PRED>
1.20E-07

>  <WATER_SOLUBILITY_MOL/L_OPERA_PRED>
5.37E-05

>  <Shape Index>
0.53846

>  <Molecular Flexibility>
0.55032

>  <Molecular Complexity>
0.87115

>  <Electronegative Atoms>
11

>  <Stereo Centers>
1

>  <Rotatable Bonds>
7

>  <Rings Closures>
2

>  <Aromatic Rings>
1

>  <Aromatic Atoms>
6

>  <Amides>
1

>  <Amines>
0

>  <Aromatic Nitrogens>
0

>  <Shape Index 2>
0.53846

>  <Molecular Flexibility 2>
0.55032

>  <Molecular Complexity 2>
0.87115

>  <Non-C/H Atoms>
11

>  <Electronegative Atoms 2>
11

>  <Stereo Centers 2>
1

>  <Rotatable Bonds 2>
7

>  <Rings Closures 2>
2

>  <Aromatic Rings 2>
1

>  <Aromatic Atoms 2>
6

>  <sp3-Atoms>
7

>  <Amides 2>
1

>  <Amines 2>
0

>  <Aromatic Nitrogens 2>
0

>  <Basic Nitrogens>
0

$$$$
Fipronil
Actelion Java MolfileCreator 2.0

  0  0  0  0  0  0              0 V3000
M  V30 BEGIN CTAB
M  V30 COUNTS 26 27 0 0 0
M  V30 BEGIN ATOM
M  V30 1 Cl 0.0 0.0 0.0 0
M  V30 2 C -0.8959 -1.2024 0.0 0
M  V30 3 C -2.393 -1.0373 0.0 0
M  V30 4 C -0.2947 -2.558 0.0 0
M  V30 5 N -3.0178 0.3418 0.0 0
M  V30 6 C -3.2889 -2.2398 0.0 0
M  V30 7 C -1.1906 -3.7605 0.0 0
M  V30 8 N -2.2751 1.6503 0.0 0
M  V30 9 C -4.4914 0.6601 0.0 0
M  V30 10 Cl -4.7861 -2.0747 0.0 0
M  V30 11 C -2.6877 -3.5954 0.0 0
M  V30 12 C -0.5894 -5.1161 0.0 0
M  V30 13 C -3.2889 2.7702 0.0 0
M  V30 14 N -5.6113 -0.33 0.0 0
M  V30 15 C -4.6564 2.1572 0.0 0
M  V30 16 F 0.7662 -4.4914 0.0 0
M  V30 17 F 0.0117 -6.4718 0.0 0
M  V30 18 F -1.9686 -5.7173 0.0 0
M  V30 19 C -2.9942 4.2438 0.0 0
M  V30 20 S -5.9649 2.9117 0.0 0 CFG=1
M  V30 21 N -2.6995 5.7173 0.0 0
M  V30 22 O -5.9767 4.4206 0.0 0
M  V30 23 C -7.2734 2.169 0.0 0
M  V30 24 F -6.5425 0.8841 0.0 0
M  V30 25 F -8.5819 1.4381 0.0 0
M  V30 26 F -8.0279 3.4775 0.0 0
M  V30 END ATOM
M  V30 BEGIN BOND
M  V30 1 1 1 2
M  V30 2 2 2 3
M  V30 3 1 2 4
M  V30 4 1 3 5
M  V30 5 1 3 6
M  V30 6 2 4 7
M  V30 7 1 5 8
M  V30 8 1 5 9
M  V30 9 1 6 10
M  V30 10 2 6 11
M  V30 11 1 7 12
M  V30 12 2 8 13
M  V30 13 1 9 14
M  V30 14 2 9 15
M  V30 15 1 12 16
M  V30 16 1 12 17
M  V30 17 1 12 18
M  V30 18 1 13 19
M  V30 19 1 20 15 CFG=3
M  V30 20 3 19 21
M  V30 21 2 20 22
M  V30 22 1 20 23
M  V30 23 1 23 24
M  V30 24 1 23 25
M  V30 25 1 23 26
M  V30 26 1 7 11
M  V30 27 1 13 15
M  V30 END BOND
M  V30 BEGIN COLLECTION
M  V30 MDLV30/STERAC1 ATOMS=(1 20)
M  V30 END COLLECTION
M  V30 END CTAB
M  END
>  <Molecule Name>
Fipronil

>  <Order (spectra)>
318

>  <NAME>
Fipronil

>  <Molecular Formula>
C12H4N4OCl2F6S

>  <Monoisotopic Mass>
435.938703

>  <SMILES>
NC1=C(C(=NN1C1=C(Cl)C=C(C=C1Cl)C(F)(F)F)C#N)S(=O)C(F)(F)F

>  <InChI>
InChI=1S/C12H6Cl2F6N4OS/c13-5-1-4(11(15,16)17)2-6(14)8(5)24-10(22)9(7(3-21)23-24)26(25)12(18,19)20/h1-2H,22,26H2

>  <InChIKey>
ZOCSXAVNDGMNBV-UHFFFAOYSA-N

>  <Kingdom>
Organic compounds

>  <Superclass>
Organoheterocyclic compounds

>  <Class>
Azoles

>  <Subclass>
Pyrazoles

>  <Parent Level 1>
Phenylpyrazoles

>  <Parent Level 2>


>  <Parent Level 3>


>  <cLogP>
4.022

>  <cLogS>
-5.449

>  <Druglikeness>
-8.5395

>  <NP-class probability>
0.6

>  <SmilesFragFp 3>


>  <MS_READY_SMILES>
NC1=C(C(=NN1C1=C(Cl)C=C(C=C1Cl)C(F)(F)F)C#N)S(=O)C(F)(F)F

>  <MS_READY_InChI>
InChI=1S/C12H6Cl2F6N4OS/c13-5-1-4(11(15,16)17)2-6(14)8(5)24-10(22)9(7(3-21)23-24)26(25)12(18,19)20/h1-2H,22,26H2

>  <QSAR_READY_SMILES>
NC1=C(C(=NN1C1=C(Cl)C=C(C=C1Cl)C(F)(F)F)C#N)S(=O)C(F)(F)F

>  <QSAR_READY_InChI>
InChI=1S/C12H6Cl2F6N4OS/c13-5-1-4(11(15,16)17)2-6(14)8(5)24-10(22)9(7(3-21)23-24)26(25)12(18,19)20/h1-2H,22,26H2

>  <DTXSID>
DTXSID4034609

>  <DTXCID>
DTXCID2014609

>  <CASRN>
120068-37-3

>  <EXPOCAST_MEDIAN_EXPOSURE_PREDICTION_MG/KG-BW/DAY>
1.82E-07

>  <BIOCONCENTRATION_FACTOR_TEST_PRED>
-

>  <BOILING_POINT_DEGC_TEST_PRED>
-

>  <48HR_DAPHNIA_LC50_MOL/L_TEST_PRED>
5.43E-07

>  <DENSITY_G/CM^3_TEST_PRED>
1.913

>  <DEVTOX_TEST_PRED>
-

>  <96HR_FATHEAD_MINNOW_MOL/L_TEST_PRED>
1.96E-08

>  <FLASH_POINT_DEGC_TEST_PRED>
249.86

>  <MELTING_POINT_DEGC_TEST_PRED>
172.249

>  <AMES_MUTAGENICITY_TEST_PRED>
-

>  <ORAL_RAT_LD50_MOL/KG_TEST_PRED>
-

>  <SURFACE_TENSION_DYN/CM_TEST_PRED>
-

>  <THERMAL_CONDUCTIVITY_MW/(M*K)_TEST_PRED>
-

>  <TETRAHYMENA_PYRIFORMIS_IGC50_MOL/L_TEST_PRED>
-

>  <VISCOSITY_CP_CP_TEST_PRED>
-

>  <VAPOR_PRESSURE_MMHG_TEST_PRED>
-

>  <WATER_SOLUBILITY_MOL/L_TEST_PRED>
0.000065013

>  <ATMOSPHERIC_HYDROXYLATION_RATE_(AOH)_CM3/MOLECULE*SEC_OPERA_PRED>
1.45E-11

>  <BIOCONCENTRATION_FACTOR_OPERA_PRED>
5.12794

>  <BIODEGRADATION_HALF_LIFE_DAYS_DAYS_OPERA_PRED>
3.54338

>  <BOILING_POINT_DEGC_OPERA_PRED>
336.486

>  <HENRYS_LAW_ATM-M3/MOLE_OPERA_PRED>
9.16E-09

>  <OPERA_KM_DAYS_OPERA_PRED>
0.618058

>  <OCTANOL_AIR_PARTITION_COEFF_LOGKOA_OPERA_PRED>
10.5369

>  <SOIL_ADSORPTION_COEFFICIENT_KOC_L/KG_OPERA_PRED>
411.369

>  <OCTANOL_WATER_PARTITION_LOGP_OPERA_PRED>
3.99786

>  <MELTING_POINT_DEGC_OPERA_PRED>
200.487

>  <VAPOR_PRESSURE_MMHG_OPERA_PRED>
2.77E-09

>  <WATER_SOLUBILITY_MOL/L_OPERA_PRED>
0.000006166

>  <Shape Index>
0.46154

>  <Molecular Flexibility>
0.48949

>  <Molecular Complexity>
0.90577

>  <Electronegative Atoms>
14

>  <Stereo Centers>
1

>  <Rotatable Bonds>
4

>  <Rings Closures>
2

>  <Aromatic Rings>
2

>  <Aromatic Atoms>
11

>  <Amides>
0

>  <Amines>
0

>  <Aromatic Nitrogens>
2

>  <Shape Index 2>
0.46154

>  <Molecular Flexibility 2>
0.48949

>  <Molecular Complexity 2>
0.90577

>  <Non-C/H Atoms>
14

>  <Electronegative Atoms 2>
14

>  <Stereo Centers 2>
1

>  <Rotatable Bonds 2>
4

>  <Rings Closures 2>
2

>  <Aromatic Rings 2>
2

>  <Aromatic Atoms 2>
11

>  <sp3-Atoms>
4

>  <Amides 2>
0

>  <Amines 2>
0

>  <Aromatic Nitrogens 2>
2

>  <Basic Nitrogens>
0

$$$$
Cyazofamid
Actelion Java MolfileCreator 2.0

  0  0  0  0  0  0              0 V3000
M  V30 BEGIN CTAB
M  V30 COUNTS 21 22 0 0 0
M  V30 BEGIN ATOM
M  V30 1 Cl 0.0 0.0 0.0 0
M  V30 2 C -1.5007 0.1654 0.0 0
M  V30 3 N -2.2569 1.477 0.0 0
M  V30 4 C -2.5169 -0.9335 0.0 0
M  V30 5 C -3.734 1.1816 0.0 0
M  V30 6 N -3.8994 -0.3072 0.0 0
M  V30 7 C -2.2215 -2.3869 0.0 0
M  V30 8 C -4.8566 2.1978 0.0 0
M  V30 9 S -5.2111 -1.0516 0.0 0
M  V30 10 C -3.3441 -3.3795 0.0 0
M  V30 11 C -0.8035 -2.8359 0.0 0
M  V30 12 N -5.9792 3.2141 0.0 0
M  V30 13 O -5.9674 -2.3396 0.0 0
M  V30 14 O -4.4666 -2.3396 0.0 0
M  V30 15 N -6.5227 -0.2954 0.0 0
M  V30 16 C -3.0486 -4.833 0.0 0
M  V30 17 C -0.5081 -4.2894 0.0 0
M  V30 18 C -6.5345 1.2171 0.0 0
M  V30 19 C -7.8344 -1.0398 0.0 0
M  V30 20 C -1.6306 -5.282 0.0 0
M  V30 21 C -1.3352 -6.7354 0.0 0
M  V30 END ATOM
M  V30 BEGIN BOND
M  V30 1 1 1 2
M  V30 2 1 2 3
M  V30 3 2 2 4
M  V30 4 2 3 5
M  V30 5 1 4 6
M  V30 6 1 4 7
M  V30 7 1 5 8
M  V30 8 1 6 9
M  V30 9 2 7 10
M  V30 10 1 7 11
M  V30 11 3 8 12
M  V30 12 2 9 13
M  V30 13 2 9 14
M  V30 14 1 9 15
M  V30 15 1 10 16
M  V30 16 2 11 17
M  V30 17 1 15 18
M  V30 18 1 15 19
M  V30 19 2 16 20
M  V30 20 1 20 21
M  V30 21 1 5 6
M  V30 22 1 17 20
M  V30 END BOND
M  V30 END CTAB
M  END
>  <Molecule Name>
Cyazofamid

>  <Order (spectra)>
326

>  <NAME>
Cyazofamid

>  <Molecular Formula>
C13H13N4O2ClS

>  <Monoisotopic Mass>
324.044773

>  <SMILES>
CN(C)S(=O)(=O)N1C(=NC(Cl)=C1C1=CC=C(C)C=C1)C#N

>  <InChI>
InChI=1S/C13H13ClN4O2S/c1-9-4-6-10(7-5-9)12-13(14)16-11(8-15)18(12)21(19,20)17(2)3/h4-7H,1-3H3

>  <InChIKey>
YXKMMRDKEKCERS-UHFFFAOYSA-N

>  <Kingdom>
Organic compounds

>  <Superclass>
Organoheterocyclic compounds

>  <Class>
Azoles

>  <Subclass>
Imidazoles

>  <Parent Level 1>
Substituted imidazoles

>  <Parent Level 2>
Phenylimidazoles

>  <Parent Level 3>


>  <cLogP>
1.0886

>  <cLogS>
-5.244

>  <Druglikeness>
-2.7931

>  <NP-class probability>
0

>  <SmilesFragFp 3>


>  <MS_READY_SMILES>
CN(C)S(=O)(=O)N1C(=NC(Cl)=C1C1=CC=C(C)C=C1)C#N

>  <MS_READY_InChI>
InChI=1S/C13H13ClN4O2S/c1-9-4-6-10(7-5-9)12-13(14)16-11(8-15)18(12)21(19,20)17(2)3/h4-7H,1-3H3

>  <QSAR_READY_SMILES>
CN(C)S(=O)(=O)N1C(=NC(Cl)=C1C1=CC=C(C)C=C1)C#N

>  <QSAR_READY_InChI>
InChI=1S/C13H13ClN4O2S/c1-9-4-6-10(7-5-9)12-13(14)16-11(8-15)18(12)21(19,20)17(2)3/h4-7H,1-3H3

>  <DTXSID>
DTXSID9034492

>  <DTXCID>
DTXCID7014492

>  <CASRN>
120116-88-3

>  <EXPOCAST_MEDIAN_EXPOSURE_PREDICTION_MG/KG-BW/DAY>
1.52E-05

>  <BIOCONCENTRATION_FACTOR_TEST_PRED>
26.9774

>  <BOILING_POINT_DEGC_TEST_PRED>
-

>  <48HR_DAPHNIA_LC50_MOL/L_TEST_PRED>
-

>  <DENSITY_G/CM^3_TEST_PRED>
1.412

>  <DEVTOX_TEST_PRED>
0.919

>  <96HR_FATHEAD_MINNOW_MOL/L_TEST_PRED>
-

>  <FLASH_POINT_DEGC_TEST_PRED>
248.561

>  <MELTING_POINT_DEGC_TEST_PRED>
158.722

>  <AMES_MUTAGENICITY_TEST_PRED>
0.144

>  <ORAL_RAT_LD50_MOL/KG_TEST_PRED>
-

>  <SURFACE_TENSION_DYN/CM_TEST_PRED>
-

>  <THERMAL_CONDUCTIVITY_MW/(M*K)_TEST_PRED>
-

>  <TETRAHYMENA_PYRIFORMIS_IGC50_MOL/L_TEST_PRED>
-

>  <VISCOSITY_CP_CP_TEST_PRED>
-

>  <VAPOR_PRESSURE_MMHG_TEST_PRED>
7.33E-09

>  <WATER_SOLUBILITY_MOL/L_TEST_PRED>
8.87E-05

>  <ATMOSPHERIC_HYDROXYLATION_RATE_(AOH)_CM3/MOLECULE*SEC_OPERA_PRED>
1.32E-11

>  <BIOCONCENTRATION_FACTOR_OPERA_PRED>
4.23569

>  <BIODEGRADATION_HALF_LIFE_DAYS_DAYS_OPERA_PRED>
4.72111

>  <BOILING_POINT_DEGC_OPERA_PRED>
329.49

>  <HENRYS_LAW_ATM-M3/MOLE_OPERA_PRED>
3.78E-07

>  <OPERA_KM_DAYS_OPERA_PRED>
0.203709

>  <OCTANOL_AIR_PARTITION_COEFF_LOGKOA_OPERA_PRED>
9.74852

>  <SOIL_ADSORPTION_COEFFICIENT_KOC_L/KG_OPERA_PRED>
787.286

>  <OCTANOL_WATER_PARTITION_LOGP_OPERA_PRED>
0.848005

>  <MELTING_POINT_DEGC_OPERA_PRED>
130.193

>  <VAPOR_PRESSURE_MMHG_OPERA_PRED>
7.08E-09

>  <WATER_SOLUBILITY_MOL/L_OPERA_PRED>
3.59E-07

>  <Shape Index>
0.47619

>  <Molecular Flexibility>
0.47981

>  <Molecular Complexity>
0.83562

>  <Electronegative Atoms>
8

>  <Stereo Centers>
0

>  <Rotatable Bonds>
2

>  <Rings Closures>
2

>  <Aromatic Rings>
2

>  <Aromatic Atoms>
11

>  <Amides>
1

>  <Amines>
0

>  <Aromatic Nitrogens>
2

>  <Shape Index 2>
0.47619

>  <Molecular Flexibility 2>
0.47981

>  <Molecular Complexity 2>
0.83562

>  <Non-C/H Atoms>
8

>  <Electronegative Atoms 2>
8

>  <Stereo Centers 2>
0

>  <Rotatable Bonds 2>
2

>  <Rings Closures 2>
2

>  <Aromatic Rings 2>
2

>  <Aromatic Atoms 2>
11

>  <sp3-Atoms>
4

>  <Amides 2>
1

>  <Amines 2>
0

>  <Aromatic Nitrogens 2>
2

>  <Basic Nitrogens>
0

$$$$
Ethiprole
Actelion Java MolfileCreator 2.0

  0  0  0  0  0  0              0 V3000
M  V30 BEGIN CTAB
M  V30 COUNTS 24 25 0 0 0
M  V30 BEGIN ATOM
M  V30 1 Cl 0.0 0.0 0.0 0
M  V30 2 C 0.6031 -1.3599 0.0 0
M  V30 3 C -0.2956 -2.5661 0.0 0
M  V30 4 C 2.0812 -1.5018 0.0 0
M  V30 5 N -1.7974 -2.4005 0.0 0
M  V30 6 C 0.3074 -3.926 0.0 0
M  V30 7 C 2.6843 -2.8617 0.0 0
M  V30 8 N -2.5543 -1.0879 0.0 0
M  V30 9 C -2.8144 -3.5003 0.0 0
M  V30 10 Cl -0.5912 -5.1322 0.0 0
M  V30 11 C 1.7856 -4.0679 0.0 0
M  V30 12 C 4.1625 -3.0036 0.0 0
M  V30 13 C -4.0324 -1.3835 0.0 0
M  V30 14 N -2.5188 -4.9548 0.0 0
M  V30 15 C -4.198 -2.8735 0.0 0
M  V30 16 F 4.3044 -1.5018 0.0 0
M  V30 17 F 5.6407 -3.1455 0.0 0
M  V30 18 F 3.997 -4.4818 0.0 0
M  V30 19 C -5.1559 -0.3665 0.0 0
M  V30 20 S -5.5106 -3.6186 0.0 0 CFG=1
M  V30 21 N -6.2793 0.6504 0.0 0
M  V30 22 O -5.5225 -5.1086 0.0 0
M  V30 23 C -6.8233 -2.8617 0.0 0
M  V30 24 C -8.1359 -3.6067 0.0 0
M  V30 END ATOM
M  V30 BEGIN BOND
M  V30 1 1 1 2
M  V30 2 2 2 3
M  V30 3 1 2 4
M  V30 4 1 3 5
M  V30 5 1 3 6
M  V30 6 2 4 7
M  V30 7 1 5 8
M  V30 8 1 5 9
M  V30 9 1 6 10
M  V30 10 2 6 11
M  V30 11 1 7 12
M  V30 12 2 8 13
M  V30 13 1 9 14
M  V30 14 2 9 15
M  V30 15 1 12 16
M  V30 16 1 12 17
M  V30 17 1 12 18
M  V30 18 1 13 19
M  V30 19 1 15 20
M  V30 20 3 19 21
M  V30 21 2 20 22
M  V30 22 1 20 23 CFG=1
M  V30 23 1 23 24
M  V30 24 1 7 11
M  V30 25 1 13 15
M  V30 END BOND
M  V30 BEGIN COLLECTION
M  V30 MDLV30/STERAC1 ATOMS=(1 20)
M  V30 END COLLECTION
M  V30 END CTAB
M  END
>  <Molecule Name>
Ethiprole

>  <Order (spectra)>
327

>  <NAME>
Ethiprole

>  <Molecular Formula>
C13H9N4OCl2F3S

>  <Monoisotopic Mass>
395.982619

>  <SMILES>
CCS(=O)C1=C(N)N(N=C1C#N)C1=C(Cl)C=C(C=C1Cl)C(F)(F)F

>  <InChI>
InChI=1S/C13H11Cl2F3N4OS/c1-2-24(23)11-9(5-19)21-22(12(11)20)10-7(14)3-6(4-8(10)15)13(16,17)18/h3-4H,2,20,24H2,1H3

>  <InChIKey>
FNELVJVBIYMIMC-UHFFFAOYSA-N

>  <Kingdom>
Organic compounds

>  <Superclass>
Organoheterocyclic compounds

>  <Class>
Azoles

>  <Subclass>
Pyrazoles

>  <Parent Level 1>
Phenylpyrazoles

>  <Parent Level 2>


>  <Parent Level 3>


>  <cLogP>
2.455

>  <cLogS>
-4.822

>  <Druglikeness>
-8.4123

>  <NP-class probability>
0.36

>  <SmilesFragFp 3>


>  <MS_READY_SMILES>
CCS(=O)C1=C(N)N(N=C1C#N)C1=C(Cl)C=C(C=C1Cl)C(F)(F)F

>  <MS_READY_InChI>
InChI=1S/C13H11Cl2F3N4OS/c1-2-24(23)11-9(5-19)21-22(12(11)20)10-7(14)3-6(4-8(10)15)13(16,17)18/h3-4H,2,20,24H2,1H3

>  <QSAR_READY_SMILES>
CCS(=O)C1=C(N)N(N=C1C#N)C1=C(Cl)C=C(C=C1Cl)C(F)(F)F

>  <QSAR_READY_InChI>
InChI=1S/C13H11Cl2F3N4OS/c1-2-24(23)11-9(5-19)21-22(12(11)20)10-7(14)3-6(4-8(10)15)13(16,17)18/h3-4H,2,20,24H2,1H3

>  <DTXSID>
DTXSID6058003

>  <DTXCID>
DTXCID9031771

>  <CASRN>
181587-01-9

>  <EXPOCAST_MEDIAN_EXPOSURE_PREDICTION_MG/KG-BW/DAY>
3.02E-07

>  <BIOCONCENTRATION_FACTOR_TEST_PRED>
176.604

>  <BOILING_POINT_DEGC_TEST_PRED>
-

>  <48HR_DAPHNIA_LC50_MOL/L_TEST_PRED>
7.59E-07

>  <DENSITY_G/CM^3_TEST_PRED>
1.724

>  <DEVTOX_TEST_PRED>
0.88

>  <96HR_FATHEAD_MINNOW_MOL/L_TEST_PRED>
2.18E-06

>  <FLASH_POINT_DEGC_TEST_PRED>
280.887

>  <MELTING_POINT_DEGC_TEST_PRED>
188.672

>  <AMES_MUTAGENICITY_TEST_PRED>
-

>  <ORAL_RAT_LD50_MOL/KG_TEST_PRED>
-

>  <SURFACE_TENSION_DYN/CM_TEST_PRED>
-

>  <THERMAL_CONDUCTIVITY_MW/(M*K)_TEST_PRED>
-

>  <TETRAHYMENA_PYRIFORMIS_IGC50_MOL/L_TEST_PRED>
-

>  <VISCOSITY_CP_CP_TEST_PRED>
-

>  <VAPOR_PRESSURE_MMHG_TEST_PRED>
-

>  <WATER_SOLUBILITY_MOL/L_TEST_PRED>
0.000152055

>  <ATMOSPHERIC_HYDROXYLATION_RATE_(AOH)_CM3/MOLECULE*SEC_OPERA_PRED>
1.37E-11

>  <BIOCONCENTRATION_FACTOR_OPERA_PRED>
9.75425

>  <BIODEGRADATION_HALF_LIFE_DAYS_DAYS_OPERA_PRED>
3.54322

>  <BOILING_POINT_DEGC_OPERA_PRED>
336.252

>  <HENRYS_LAW_ATM-M3/MOLE_OPERA_PRED>
5.62E-08

>  <OPERA_KM_DAYS_OPERA_PRED>
0.705513

>  <OCTANOL_AIR_PARTITION_COEFF_LOGKOA_OPERA_PRED>
10.3843

>  <SOIL_ADSORPTION_COEFFICIENT_KOC_L/KG_OPERA_PRED>
922.486

>  <OCTANOL_WATER_PARTITION_LOGP_OPERA_PRED>
2.83261

>  <MELTING_POINT_DEGC_OPERA_PRED>
180.221

>  <VAPOR_PRESSURE_MMHG_OPERA_PRED>
1.35E-09

>  <WATER_SOLUBILITY_MOL/L_OPERA_PRED>
1.95E-05

>  <Shape Index>
0.5

>  <Molecular Flexibility>
0.46905

>  <Molecular Complexity>
0.90011

>  <Electronegative Atoms>
11

>  <Stereo Centers>
1

>  <Rotatable Bonds>
4

>  <Rings Closures>
2

>  <Aromatic Rings>
2

>  <Aromatic Atoms>
11

>  <Amides>
0

>  <Amines>
0

>  <Aromatic Nitrogens>
2

>  <Shape Index 2>
0.5

>  <Molecular Flexibility 2>
0.46905

>  <Molecular Complexity 2>
0.90011

>  <Non-C/H Atoms>
11

>  <Electronegative Atoms 2>
11

>  <Stereo Centers 2>
1

>  <Rotatable Bonds 2>
4

>  <Rings Closures 2>
2

>  <Aromatic Rings 2>
2

>  <Aromatic Atoms 2>
11

>  <sp3-Atoms>
5

>  <Amides 2>
0

>  <Amines 2>
0

>  <Aromatic Nitrogens 2>
2

>  <Basic Nitrogens>
0

$$$$
Sulfentrazone
Actelion Java MolfileCreator 2.0

  0  0  0  0  0  0              0 V3000
M  V30 BEGIN CTAB
M  V30 COUNTS 23 24 0 0 0
M  V30 BEGIN ATOM
M  V30 1 Cl 0.0 0.0 0.0 0
M  V30 2 C -1.3077 0.754 0.0 0
M  V30 3 C -1.3195 2.262 0.0 0
M  V30 4 C -2.6154 0.0235 0.0 0
M  V30 5 N -0.0353 3.016 0.0 0
M  V30 6 C -2.6272 3.016 0.0 0
M  V30 7 C -3.9231 0.7775 0.0 0
M  V30 8 N 1.3195 2.4151 0.0 0
M  V30 9 C 0.106 4.5122 0.0 0
M  V30 10 C -3.9349 2.2855 0.0 0
M  V30 11 Cl -5.2309 0.0471 0.0 0
M  V30 12 C 2.3091 3.5344 0.0 0
M  V30 13 O -1.0131 5.5254 0.0 0
M  V30 14 N 1.5551 4.8303 0.0 0
M  V30 15 N -5.2427 3.0395 0.0 0
M  V30 16 C 3.7818 3.393 0.0 0
M  V30 17 C 2.1559 6.2087 0.0 0
M  V30 18 S -5.2544 4.5476 0.0 0
M  V30 19 F 3.6286 6.3737 0.0 0
M  V30 20 F 1.2606 7.434 0.0 0
M  V30 21 O -6.7624 4.5593 0.0 0
M  V30 22 O -3.77 4.5593 0.0 0
M  V30 23 C -5.2662 6.0556 0.0 0
M  V30 END ATOM
M  V30 BEGIN BOND
M  V30 1 1 1 2
M  V30 2 2 2 3
M  V30 3 1 2 4
M  V30 4 1 3 5
M  V30 5 1 3 6
M  V30 6 2 4 7
M  V30 7 1 5 8
M  V30 8 1 5 9
M  V30 9 2 6 10
M  V30 10 1 7 11
M  V30 11 2 8 12
M  V30 12 2 9 13
M  V30 13 1 9 14
M  V30 14 1 10 15
M  V30 15 1 12 16
M  V30 16 1 14 17
M  V30 17 1 15 18
M  V30 18 1 17 19
M  V30 19 1 17 20
M  V30 20 2 18 21
M  V30 21 2 18 22
M  V30 22 1 18 23
M  V30 23 1 7 10
M  V30 24 1 12 14
M  V30 END BOND
M  V30 END CTAB
M  END
>  <Molecule Name>
Sulfentrazone

>  <Order (spectra)>
332

>  <NAME>
Sulfentrazone

>  <Molecular Formula>
C11H10N4O3Cl2F2S

>  <Monoisotopic Mass>
385.981871

>  <SMILES>
CC1=NN(C(=O)N1C(F)F)C1=CC(NS(C)(=O)=O)=C(Cl)C=C1Cl

>  <InChI>
InChI=1S/C11H10Cl2F2N4O3S/c1-5-16-19(11(20)18(5)10(14)15)9-4-8(17-23(2,21)22)6(12)3-7(9)13/h3-4,10,17H,1-2H3

>  <InChIKey>
OORLZFUTLGXMEF-UHFFFAOYSA-N

>  <Kingdom>
Organic compounds

>  <Superclass>
Organoheterocyclic compounds

>  <Class>
Azoles

>  <Subclass>
Triazoles

>  <Parent Level 1>
Phenyltriazoles

>  <Parent Level 2>
Phenyl-1,2,4-triazoles

>  <Parent Level 3>


>  <cLogP>
2.326

>  <cLogS>
-5.113

>  <Druglikeness>
2.4433

>  <NP-class probability>
0.02

>  <SmilesFragFp 3>


>  <MS_READY_SMILES>
CC1=NN(C(=O)N1C(F)F)C1=CC(NS(C)(=O)=O)=C(Cl)C=C1Cl

>  <MS_READY_InChI>
InChI=1S/C11H10Cl2F2N4O3S/c1-5-16-19(11(20)18(5)10(14)15)9-4-8(17-23(2,21)22)6(12)3-7(9)13/h3-4,10,17H,1-2H3

>  <QSAR_READY_SMILES>
CC1=NN(C(=O)N1C(F)F)C1=CC(NS(C)(=O)=O)=C(Cl)C=C1Cl

>  <QSAR_READY_InChI>
InChI=1S/C11H10Cl2F2N4O3S/c1-5-16-19(11(20)18(5)10(14)15)9-4-8(17-23(2,21)22)6(12)3-7(9)13/h3-4,10,17H,1-2H3

>  <DTXSID>
DTXSID6032645

>  <DTXCID>
DTXCID4012645

>  <CASRN>
122836-35-5

>  <EXPOCAST_MEDIAN_EXPOSURE_PREDICTION_MG/KG-BW/DAY>
1.49E-07

>  <BIOCONCENTRATION_FACTOR_TEST_PRED>
6.91831

>  <BOILING_POINT_DEGC_TEST_PRED>
-

>  <48HR_DAPHNIA_LC50_MOL/L_TEST_PRED>
2.72E-05

>  <DENSITY_G/CM^3_TEST_PRED>
1.624

>  <DEVTOX_TEST_PRED>
1.271

>  <96HR_FATHEAD_MINNOW_MOL/L_TEST_PRED>
-

>  <FLASH_POINT_DEGC_TEST_PRED>
203.396

>  <MELTING_POINT_DEGC_TEST_PRED>
174.743

>  <AMES_MUTAGENICITY_TEST_PRED>
0.709

>  <ORAL_RAT_LD50_MOL/KG_TEST_PRED>
0.00122744

>  <SURFACE_TENSION_DYN/CM_TEST_PRED>
-

>  <THERMAL_CONDUCTIVITY_MW/(M*K)_TEST_PRED>
-

>  <TETRAHYMENA_PYRIFORMIS_IGC50_MOL/L_TEST_PRED>
-

>  <VISCOSITY_CP_CP_TEST_PRED>
-

>  <VAPOR_PRESSURE_MMHG_TEST_PRED>
2.59E-08

>  <WATER_SOLUBILITY_MOL/L_TEST_PRED>
0.000125314

>  <ATMOSPHERIC_HYDROXYLATION_RATE_(AOH)_CM3/MOLECULE*SEC_OPERA_PRED>
2.16E-11

>  <BIOCONCENTRATION_FACTOR_OPERA_PRED>
7.64343

>  <BIODEGRADATION_HALF_LIFE_DAYS_DAYS_OPERA_PRED>
5.69031

>  <BOILING_POINT_DEGC_OPERA_PRED>
342.438

>  <HENRYS_LAW_ATM-M3/MOLE_OPERA_PRED>
9.35E-11

>  <OPERA_KM_DAYS_OPERA_PRED>
1.02083

>  <OCTANOL_AIR_PARTITION_COEFF_LOGKOA_OPERA_PRED>
11.0785

>  <SOIL_ADSORPTION_COEFFICIENT_KOC_L/KG_OPERA_PRED>
450.883

>  <OCTANOL_WATER_PARTITION_LOGP_OPERA_PRED>
0.993599

>  <MELTING_POINT_DEGC_OPERA_PRED>
122.057

>  <VAPOR_PRESSURE_MMHG_OPERA_PRED>
9.73E-10

>  <WATER_SOLUBILITY_MOL/L_OPERA_PRED>
0.00199162

>  <Shape Index>
0.47826

>  <Molecular Flexibility>
0.49153

>  <Molecular Complexity>
0.8598

>  <Electronegative Atoms>
12

>  <Stereo Centers>
0

>  <Rotatable Bonds>
3

>  <Rings Closures>
2

>  <Aromatic Rings>
1

>  <Aromatic Atoms>
6

>  <Amides>
2

>  <Amines>
0

>  <Aromatic Nitrogens>
0

>  <Shape Index 2>
0.47826

>  <Molecular Flexibility 2>
0.49153

>  <Molecular Complexity 2>
0.8598

>  <Non-C/H Atoms>
12

>  <Electronegative Atoms 2>
12

>  <Stereo Centers 2>
0

>  <Rotatable Bonds 2>
3

>  <Rings Closures 2>
2

>  <Aromatic Rings 2>
1

>  <Aromatic Atoms 2>
6

>  <sp3-Atoms>
4

>  <Amides 2>
2

>  <Amines 2>
0

>  <Aromatic Nitrogens 2>
0

>  <Basic Nitrogens>
0

$$$$
para-Terphenyl
Actelion Java MolfileCreator 2.0

  0  0  0  0  0  0              0 V3000
M  V30 BEGIN CTAB
M  V30 COUNTS 18 20 0 0 0
M  V30 BEGIN ATOM
M  V30 1 C 0.0 0.0 0.0 0
M  V30 2 C -1.3134 -0.7336 0.0 0
M  V30 3 C 1.2897 -0.7336 0.0 0
M  V30 4 C -0.0118 1.5146 0.0 0
M  V30 5 C -2.6269 0.0236 0.0 0
M  V30 6 C -1.3252 -2.2245 0.0 0
M  V30 7 C 2.5795 0.0236 0.0 0
M  V30 8 C 1.2779 2.2719 0.0 0
M  V30 9 C -3.9403 -0.7099 0.0 0
M  V30 10 C -2.6387 -2.9582 0.0 0
M  V30 11 C 2.5677 1.5382 0.0 0
M  V30 12 C -3.9521 -2.2009 0.0 0
M  V30 13 C 3.8575 2.2955 0.0 0
M  V30 14 C 5.1473 1.5619 0.0 0
M  V30 15 C 3.8456 3.8101 0.0 0
M  V30 16 C 6.437 2.3192 0.0 0
M  V30 17 C 5.1354 4.5674 0.0 0
M  V30 18 C 6.4252 3.8338 0.0 0
M  V30 END ATOM
M  V30 BEGIN BOND
M  V30 1 1 1 2
M  V30 2 2 1 3
M  V30 3 1 1 4
M  V30 4 2 2 5
M  V30 5 1 2 6
M  V30 6 1 3 7
M  V30 7 2 4 8
M  V30 8 1 5 9
M  V30 9 2 6 10
M  V30 10 2 7 11
M  V30 11 2 9 12
M  V30 12 1 11 13
M  V30 13 2 13 14
M  V30 14 1 13 15
M  V30 15 1 14 16
M  V30 16 2 15 17
M  V30 17 2 16 18
M  V30 18 1 8 11
M  V30 19 1 10 12
M  V30 20 1 17 18
M  V30 END BOND
M  V30 END CTAB
M  END
>  <Molecule Name>
para-Terphenyl

>  <Order (spectra)>
10

>  <NAME>
para-Terphenyl

>  <Molecular Formula>
C18H14

>  <Monoisotopic Mass>
230.10955

>  <SMILES>
C1=CC=C(C=C1)C1=CC=C(C=C1)C1=CC=CC=C1

>  <InChI>
InChI=1S/C18H14/c1-3-7-15(8-4-1)17-11-13-18(14-12-17)16-9-5-2-6-10-16/h1-14H

>  <InChIKey>
XJKSTNDFUHDPQJ-UHFFFAOYSA-N

>  <Kingdom>
Organic compounds

>  <Superclass>
Benzenoids

>  <Class>
Benzene and substituted derivatives

>  <Subclass>
Terphenyls

>  <Parent Level 1>
P-terphenyls

>  <Parent Level 2>


>  <Parent Level 3>


>  <cLogP>
4.978

>  <cLogS>
-5.788

>  <Druglikeness>
-2.1841

>  <NP-class probability>
0.87

>  <SmilesFragFp 3>


>  <MS_READY_SMILES>
C1=CC=C(C=C1)C1=CC=C(C=C1)C1=CC=CC=C1

>  <MS_READY_InChI>
InChI=1S/C18H14/c1-3-7-15(8-4-1)17-11-13-18(14-12-17)16-9-5-2-6-10-16/h1-14H

>  <QSAR_READY_SMILES>
C1=CC=C(C=C1)C1=CC=C(C=C1)C1=CC=CC=C1

>  <QSAR_READY_InChI>
InChI=1S/C18H14/c1-3-7-15(8-4-1)17-11-13-18(14-12-17)16-9-5-2-6-10-16/h1-14H

>  <DTXSID>
DTXSID6029121

>  <DTXCID>
DTXCID907888

>  <CASRN>
92-94-4

>  <EXPOCAST_MEDIAN_EXPOSURE_PREDICTION_MG/KG-BW/DAY>
1.12E-06

>  <BIOCONCENTRATION_FACTOR_TEST_PRED>
1009.25

>  <BOILING_POINT_DEGC_TEST_PRED>
375.374

>  <48HR_DAPHNIA_LC50_MOL/L_TEST_PRED>
6.75E-07

>  <DENSITY_G/CM^3_TEST_PRED>
1.078

>  <DEVTOX_TEST_PRED>
0.731

>  <96HR_FATHEAD_MINNOW_MOL/L_TEST_PRED>
1.74E-06

>  <FLASH_POINT_DEGC_TEST_PRED>
174.56

>  <MELTING_POINT_DEGC_TEST_PRED>
103.476

>  <AMES_MUTAGENICITY_TEST_PRED>
-0.108

>  <ORAL_RAT_LD50_MOL/KG_TEST_PRED>
0.0104713

>  <SURFACE_TENSION_DYN/CM_TEST_PRED>
41.177

>  <THERMAL_CONDUCTIVITY_MW/(M*K)_TEST_PRED>
134.545

>  <TETRAHYMENA_PYRIFORMIS_IGC50_MOL/L_TEST_PRED>
5.74E-06

>  <VISCOSITY_CP_CP_TEST_PRED>
-

>  <VAPOR_PRESSURE_MMHG_TEST_PRED>
0.000039355

>  <WATER_SOLUBILITY_MOL/L_TEST_PRED>
3.30E-06

>  <ATMOSPHERIC_HYDROXYLATION_RATE_(AOH)_CM3/MOLECULE*SEC_OPERA_PRED>
4.00E-11

>  <BIOCONCENTRATION_FACTOR_OPERA_PRED>
2374.84

>  <BIODEGRADATION_HALF_LIFE_DAYS_DAYS_OPERA_PRED>
45.6307

>  <BOILING_POINT_DEGC_OPERA_PRED>
357.011

>  <HENRYS_LAW_ATM-M3/MOLE_OPERA_PRED>
5.69E-06

>  <OPERA_KM_DAYS_OPERA_PRED>
5.27913

>  <OCTANOL_AIR_PARTITION_COEFF_LOGKOA_OPERA_PRED>
8.64489

>  <SOIL_ADSORPTION_COEFFICIENT_KOC_L/KG_OPERA_PRED>
13693

>  <OCTANOL_WATER_PARTITION_LOGP_OPERA_PRED>
6.02865

>  <MELTING_POINT_DEGC_OPERA_PRED>
117.64

>  <VAPOR_PRESSURE_MMHG_OPERA_PRED>
1.04E-07

>  <WATER_SOLUBILITY_MOL/L_OPERA_PRED>
9.57E-07

>  <Shape Index>
0.66667

>  <Molecular Flexibility>
0.37397

>  <Molecular Complexity>
0.58251

>  <Electronegative Atoms>
0

>  <Stereo Centers>
0

>  <Rotatable Bonds>
2

>  <Rings Closures>
3

>  <Aromatic Rings>
3

>  <Aromatic Atoms>
18

>  <Amides>
0

>  <Amines>
0

>  <Aromatic Nitrogens>
0

>  <Shape Index 2>
0.66667

>  <Molecular Flexibility 2>
0.37397

>  <Molecular Complexity 2>
0.58251

>  <Non-C/H Atoms>
0

>  <Electronegative Atoms 2>
0

>  <Stereo Centers 2>
0

>  <Rotatable Bonds 2>
2

>  <Rings Closures 2>
3

>  <Aromatic Rings 2>
3

>  <Aromatic Atoms 2>
18

>  <sp3-Atoms>
0

>  <Amides 2>
0

>  <Amines 2>
0

>  <Aromatic Nitrogens 2>
0

>  <Basic Nitrogens>
0

$$$$
Dicofol
Actelion Java MolfileCreator 2.0

  0  0  0  0  0  0              0 V3000
M  V30 BEGIN CTAB
M  V30 COUNTS 20 21 0 0 0
M  V30 BEGIN ATOM
M  V30 1 Cl 0.0 0.0 0.0 0
M  V30 2 C -1.3138 0.7664 0.0 0
M  V30 3 C -1.326 2.2871 0.0 0
M  V30 4 C -2.6277 0.0243 0.0 0
M  V30 5 C -2.6399 3.0535 0.0 0
M  V30 6 C -3.5767 0.8759 0.0 0
M  V30 7 C -3.9538 2.3114 0.0 0
M  V30 8 C -5.2677 3.0779 0.0 0
M  V30 9 O -5.2799 4.5986 0.0 0
M  V30 10 C -5.2799 1.5815 0.0 0
M  V30 11 C -6.5816 2.3358 0.0 0
M  V30 12 C -6.5938 0.8394 0.0 0
M  V30 13 C -4.1728 0.7907 0.0 0
M  V30 14 Cl -5.7057 0.8029 0.0 0
M  V30 15 Cl -7.8955 1.5937 0.0 0
M  V30 16 Cl -7.348 3.6497 0.0 0
M  V30 17 C -6.6059 -0.6569 0.0 0
M  V30 18 C -4.0025 -0.6569 0.0 0
M  V30 19 C -5.3164 -1.399 0.0 0
M  V30 20 Cl -5.3285 -2.8954 0.0 0
M  V30 END ATOM
M  V30 BEGIN BOND
M  V30 1 1 1 2
M  V30 2 2 2 3
M  V30 3 1 2 4
M  V30 4 1 3 5
M  V30 5 2 4 6
M  V30 6 2 5 7
M  V30 7 1 7 8
M  V30 8 1 8 9
M  V30 9 1 8 10
M  V30 10 1 8 11
M  V30 11 2 10 12
M  V30 12 1 10 13
M  V30 13 1 11 14
M  V30 14 1 11 15
M  V30 15 1 11 16
M  V30 16 1 12 17
M  V30 17 2 13 18
M  V30 18 2 17 19
M  V30 19 1 19 20
M  V30 20 1 6 7
M  V30 21 1 18 19
M  V30 END BOND
M  V30 END CTAB
M  END
>  <Molecule Name>
Dicofol

>  <Order (spectra)>
26

>  <NAME>
Dicofol

>  <Molecular Formula>
C14H9OCl5

>  <Monoisotopic Mass>
367.9096

>  <SMILES>
OC(C1=CC=C(Cl)C=C1)(C1=CC=C(Cl)C=C1)C(Cl)(Cl)Cl

>  <InChI>
InChI=1S/C14H9Cl5O/c15-11-5-1-9(2-6-11)13(20,14(17,18)19)10-3-7-12(16)8-4-10/h1-8,20H

>  <InChIKey>
UOAMTSKGCBMZTC-UHFFFAOYSA-N

>  <Kingdom>
Organic compounds

>  <Superclass>
Benzenoids

>  <Class>
Benzene and substituted derivatives

>  <Subclass>
Diphenylmethanes

>  <Parent Level 1>
Diphenylmethanes

>  <Parent Level 2>


>  <Parent Level 3>


>  <cLogP>
5.3578

>  <cLogS>
-5.533

>  <Druglikeness>
-0.30907

>  <NP-class probability>
0.06

>  <SmilesFragFp 3>


>  <MS_READY_SMILES>
OC(C1=CC=C(Cl)C=C1)(C1=CC=C(Cl)C=C1)C(Cl)(Cl)Cl

>  <MS_READY_InChI>
InChI=1S/C14H9Cl5O/c15-11-5-1-9(2-6-11)13(20,14(17,18)19)10-3-7-12(16)8-4-10/h1-8,20H

>  <QSAR_READY_SMILES>
OC(C1=CC=C(Cl)C=C1)(C1=CC=C(Cl)C=C1)C(Cl)(Cl)Cl

>  <QSAR_READY_InChI>
InChI=1S/C14H9Cl5O/c15-11-5-1-9(2-6-11)13(20,14(17,18)19)10-3-7-12(16)8-4-10/h1-8,20H

>  <DTXSID>
DTXSID4020450

>  <DTXCID>
DTXCID40450

>  <CASRN>
115-32-2

>  <EXPOCAST_MEDIAN_EXPOSURE_PREDICTION_MG/KG-BW/DAY>
5.13E-08

>  <BIOCONCENTRATION_FACTOR_TEST_PRED>
1106.62

>  <BOILING_POINT_DEGC_TEST_PRED>
394.857

>  <48HR_DAPHNIA_LC50_MOL/L_TEST_PRED>
4.84E-07

>  <DENSITY_G/CM^3_TEST_PRED>
1.534

>  <DEVTOX_TEST_PRED>
0.844

>  <96HR_FATHEAD_MINNOW_MOL/L_TEST_PRED>
6.35E-07

>  <FLASH_POINT_DEGC_TEST_PRED>
219.53

>  <MELTING_POINT_DEGC_TEST_PRED>
111.53

>  <AMES_MUTAGENICITY_TEST_PRED>
0.196

>  <ORAL_RAT_LD50_MOL/KG_TEST_PRED>
0.00115345

>  <SURFACE_TENSION_DYN/CM_TEST_PRED>
-

>  <THERMAL_CONDUCTIVITY_MW/(M*K)_TEST_PRED>
126.19

>  <TETRAHYMENA_PYRIFORMIS_IGC50_MOL/L_TEST_PRED>
2.06E-06

>  <VISCOSITY_CP_CP_TEST_PRED>
-

>  <VAPOR_PRESSURE_MMHG_TEST_PRED>
2.82E-07

>  <WATER_SOLUBILITY_MOL/L_TEST_PRED>
6.19E-07

>  <ATMOSPHERIC_HYDROXYLATION_RATE_(AOH)_CM3/MOLECULE*SEC_OPERA_PRED>
5.86E-12

>  <BIOCONCENTRATION_FACTOR_OPERA_PRED>
6168.88

>  <BIODEGRADATION_HALF_LIFE_DAYS_DAYS_OPERA_PRED>
20.526

>  <BOILING_POINT_DEGC_OPERA_PRED>
370.337

>  <HENRYS_LAW_ATM-M3/MOLE_OPERA_PRED>
1.47E-09

>  <OPERA_KM_DAYS_OPERA_PRED>
97.2612

>  <OCTANOL_AIR_PARTITION_COEFF_LOGKOA_OPERA_PRED>
11.4057

>  <SOIL_ADSORPTION_COEFFICIENT_KOC_L/KG_OPERA_PRED>
5022.68

>  <OCTANOL_WATER_PARTITION_LOGP_OPERA_PRED>
5.02414

>  <MELTING_POINT_DEGC_OPERA_PRED>
77.4786

>  <VAPOR_PRESSURE_MMHG_OPERA_PRED>
3.97E-07

>  <WATER_SOLUBILITY_MOL/L_OPERA_PRED>
2.34E-06

>  <Shape Index>
0.55

>  <Molecular Flexibility>
0.5162

>  <Molecular Complexity>
0.75329

>  <Electronegative Atoms>
6

>  <Stereo Centers>
0

>  <Rotatable Bonds>
3

>  <Rings Closures>
2

>  <Aromatic Rings>
2

>  <Aromatic Atoms>
12

>  <Amides>
0

>  <Amines>
0

>  <Aromatic Nitrogens>
0

>  <Shape Index 2>
0.55

>  <Molecular Flexibility 2>
0.5162

>  <Molecular Complexity 2>
0.75329

>  <Non-C/H Atoms>
6

>  <Electronegative Atoms 2>
6

>  <Stereo Centers 2>
0

>  <Rotatable Bonds 2>
3

>  <Rings Closures 2>
2

>  <Aromatic Rings 2>
2

>  <Aromatic Atoms 2>
12

>  <sp3-Atoms>
3

>  <Amides 2>
0

>  <Amines 2>
0

>  <Aromatic Nitrogens 2>
0

>  <Basic Nitrogens>
0

$$$$
Benzophenone
Actelion Java MolfileCreator 2.0

  0  0  0  0  0  0              0 V3000
M  V30 BEGIN CTAB
M  V30 COUNTS 14 15 0 0 0
M  V30 BEGIN ATOM
M  V30 1 O 0.0 0.0 0.0 0
M  V30 2 C -1.3069 0.7535 0.0 0
M  V30 3 C -1.3187 2.2607 0.0 0
M  V30 4 C -2.6139 0.0235 0.0 0
M  V30 5 C -0.0353 3.0143 0.0 0
M  V30 6 C -2.6257 3.0143 0.0 0
M  V30 7 C -3.9209 0.7771 0.0 0
M  V30 8 C -2.6257 -1.46 0.0 0
M  V30 9 C -0.047 4.5214 0.0 0
M  V30 10 C -2.6375 4.5214 0.0 0
M  V30 11 C -5.2279 0.047 0.0 0
M  V30 12 C -3.9327 -2.19 0.0 0
M  V30 13 C -1.354 5.275 0.0 0
M  V30 14 C -5.2397 -1.4365 0.0 0
M  V30 END ATOM
M  V30 BEGIN BOND
M  V30 1 2 1 2
M  V30 2 1 2 3
M  V30 3 1 2 4
M  V30 4 2 3 5
M  V30 5 1 3 6
M  V30 6 2 4 7
M  V30 7 1 4 8
M  V30 8 1 5 9
M  V30 9 2 6 10
M  V30 10 1 7 11
M  V30 11 2 8 12
M  V30 12 2 9 13
M  V30 13 2 11 14
M  V30 14 1 10 13
M  V30 15 1 12 14
M  V30 END BOND
M  V30 END CTAB
M  END
>  <Molecule Name>
Benzophenone

>  <Order (spectra)>
27

>  <NAME>
Benzophenone

>  <Molecular Formula>
C13H10O

>  <Monoisotopic Mass>
182.073165

>  <SMILES>
O=C(C1=CC=CC=C1)C1=CC=CC=C1

>  <InChI>
InChI=1S/C13H10O/c14-13(11-7-3-1-4-8-11)12-9-5-2-6-10-12/h1-10H

>  <InChIKey>
RWCCWEUUXYIKHB-UHFFFAOYSA-N

>  <Kingdom>
Organic compounds

>  <Superclass>
Benzenoids

>  <Class>
Benzene and substituted derivatives

>  <Subclass>
Benzophenones

>  <Parent Level 1>
Benzophenones

>  <Parent Level 2>


>  <Parent Level 3>


>  <cLogP>
2.7896

>  <cLogS>
-3.716

>  <Druglikeness>
-1.1025

>  <NP-class probability>
0.86

>  <SmilesFragFp 3>


>  <MS_READY_SMILES>
O=C(C1=CC=CC=C1)C1=CC=CC=C1

>  <MS_READY_InChI>
InChI=1S/C13H10O/c14-13(11-7-3-1-4-8-11)12-9-5-2-6-10-12/h1-10H

>  <QSAR_READY_SMILES>
O=C(C1=CC=CC=C1)C1=CC=CC=C1

>  <QSAR_READY_InChI>
InChI=1S/C13H10O/c14-13(11-7-3-1-4-8-11)12-9-5-2-6-10-12/h1-10H

>  <DTXSID>
DTXSID0021961

>  <DTXCID>
DTXCID101961

>  <CASRN>
119-61-9

>  <EXPOCAST_MEDIAN_EXPOSURE_PREDICTION_MG/KG-BW/DAY>
3.09E-04

>  <BIOCONCENTRATION_FACTOR_TEST_PRED>
87.9023

>  <BOILING_POINT_DEGC_TEST_PRED>
303.142

>  <48HR_DAPHNIA_LC50_MOL/L_TEST_PRED>
2.00E-05

>  <DENSITY_G/CM^3_TEST_PRED>
1.118

>  <DEVTOX_TEST_PRED>
0.553

>  <96HR_FATHEAD_MINNOW_MOL/L_TEST_PRED>
4.51E-05

>  <FLASH_POINT_DEGC_TEST_PRED>
134.7

>  <MELTING_POINT_DEGC_TEST_PRED>
51.847

>  <AMES_MUTAGENICITY_TEST_PRED>
0.378

>  <ORAL_RAT_LD50_MOL/KG_TEST_PRED>
0.0262422

>  <SURFACE_TENSION_DYN/CM_TEST_PRED>
-

>  <THERMAL_CONDUCTIVITY_MW/(M*K)_TEST_PRED>
-

>  <TETRAHYMENA_PYRIFORMIS_IGC50_MOL/L_TEST_PRED>
0.00010666

>  <VISCOSITY_CP_CP_TEST_PRED>
8.60994

>  <VAPOR_PRESSURE_MMHG_TEST_PRED>
0.000349945

>  <WATER_SOLUBILITY_MOL/L_TEST_PRED>
0.00027227

>  <ATMOSPHERIC_HYDROXYLATION_RATE_(AOH)_CM3/MOLECULE*SEC_OPERA_PRED>
1.25E-12

>  <BIOCONCENTRATION_FACTOR_OPERA_PRED>
12.1482

>  <BIODEGRADATION_HALF_LIFE_DAYS_DAYS_OPERA_PRED>
5.25122

>  <BOILING_POINT_DEGC_OPERA_PRED>
305.417

>  <HENRYS_LAW_ATM-M3/MOLE_OPERA_PRED>
7.13E-07

>  <OPERA_KM_DAYS_OPERA_PRED>
0.067719

>  <OCTANOL_AIR_PARTITION_COEFF_LOGKOA_OPERA_PRED>
7.25371

>  <SOIL_ADSORPTION_COEFFICIENT_KOC_L/KG_OPERA_PRED>
426.789

>  <OCTANOL_WATER_PARTITION_LOGP_OPERA_PRED>
3.18141

>  <MELTING_POINT_DEGC_OPERA_PRED>
48.2661

>  <VAPOR_PRESSURE_MMHG_OPERA_PRED>
0.00191301

>  <WATER_SOLUBILITY_MOL/L_OPERA_PRED>
0.000751735

>  <Shape Index>
0.64286

>  <Molecular Flexibility>
0.51396

>  <Molecular Complexity>
0.44793

>  <Electronegative Atoms>
1

>  <Stereo Centers>
0

>  <Rotatable Bonds>
2

>  <Rings Closures>
2

>  <Aromatic Rings>
2

>  <Aromatic Atoms>
12

>  <Amides>
0

>  <Amines>
0

>  <Aromatic Nitrogens>
0

>  <Shape Index 2>
0.64286

>  <Molecular Flexibility 2>
0.51396

>  <Molecular Complexity 2>
0.44793

>  <Non-C/H Atoms>
1

>  <Electronegative Atoms 2>
1

>  <Stereo Centers 2>
0

>  <Rotatable Bonds 2>
2

>  <Rings Closures 2>
2

>  <Aromatic Rings 2>
2

>  <Aromatic Atoms 2>
12

>  <sp3-Atoms>
0

>  <Amides 2>
0

>  <Amines 2>
0

>  <Aromatic Nitrogens 2>
0

>  <Basic Nitrogens>
0

$$$$
Butylated hydroxytoluene
Actelion Java MolfileCreator 2.0

  0  0  0  0  0  0              0 V3000
M  V30 BEGIN CTAB
M  V30 COUNTS 16 16 0 0 0
M  V30 BEGIN ATOM
M  V30 1 O 0.0 0.0 0.0 0
M  V30 2 C -1.3112 -0.7323 0.0 0
M  V30 3 C -2.6224 0.0236 0.0 0
M  V30 4 C -1.323 -2.2208 0.0 0
M  V30 5 C -3.9336 -0.7087 0.0 0
M  V30 6 C -2.6342 1.5356 0.0 0
M  V30 7 C -2.6342 -2.9532 0.0 0
M  V30 8 C -0.0354 -2.965 0.0 0
M  V30 9 C -3.9454 -2.1971 0.0 0
M  V30 10 C -4.1463 1.5474 0.0 0
M  V30 11 C -2.646 3.0477 0.0 0
M  V30 12 C -1.1458 1.5474 0.0 0
M  V30 13 C 0.6969 -1.6537 0.0 0
M  V30 14 C 1.2521 -3.6974 0.0 0
M  V30 15 C -0.7914 -4.2526 0.0 0
M  V30 16 C -5.2567 -2.9295 0.0 0
M  V30 END ATOM
M  V30 BEGIN BOND
M  V30 1 1 1 2
M  V30 2 2 2 3
M  V30 3 1 2 4
M  V30 4 1 3 5
M  V30 5 1 3 6
M  V30 6 2 4 7
M  V30 7 1 4 8
M  V30 8 2 5 9
M  V30 9 1 6 10
M  V30 10 1 6 11
M  V30 11 1 6 12
M  V30 12 1 8 13
M  V30 13 1 8 14
M  V30 14 1 8 15
M  V30 15 1 9 16
M  V30 16 1 7 9
M  V30 END BOND
M  V30 END CTAB
M  END
>  <Molecule Name>
Butylated hydroxytoluene

>  <Order (spectra)>
29

>  <NAME>
Butylated hydroxytoluene

>  <Molecular Formula>
C15H24O

>  <Monoisotopic Mass>
220.182715

>  <SMILES>
CC1=CC(=C(O)C(=C1)C(C)(C)C)C(C)(C)C

>  <InChI>
InChI=1S/C15H24O/c1-10-8-11(14(2,3)4)13(16)12(9-10)15(5,6)7/h8-9,16H,1-7H3

>  <InChIKey>
NLZUEZXRPGMBCV-UHFFFAOYSA-N

>  <Kingdom>
Organic compounds

>  <Superclass>
Benzenoids

>  <Class>
Benzene and substituted derivatives

>  <Subclass>
Phenylpropanes

>  <Parent Level 1>
Phenylpropanes

>  <Parent Level 2>


>  <Parent Level 3>


>  <cLogP>
4.8216

>  <cLogS>
-3.984

>  <Druglikeness>
-5.276

>  <NP-class probability>
1

>  <SmilesFragFp 3>


>  <MS_READY_SMILES>
CC1=CC(=C(O)C(=C1)C(C)(C)C)C(C)(C)C

>  <MS_READY_InChI>
InChI=1S/C15H24O/c1-10-8-11(14(2,3)4)13(16)12(9-10)15(5,6)7/h8-9,16H,1-7H3

>  <QSAR_READY_SMILES>
CC1=CC(=C(O)C(=C1)C(C)(C)C)C(C)(C)C

>  <QSAR_READY_InChI>
InChI=1S/C15H24O/c1-10-8-11(14(2,3)4)13(16)12(9-10)15(5,6)7/h8-9,16H,1-7H3

>  <DTXSID>
DTXSID2020216

>  <DTXCID>
DTXCID20216

>  <CASRN>
128-37-0

>  <EXPOCAST_MEDIAN_EXPOSURE_PREDICTION_MG/KG-BW/DAY>
5.75E-06

>  <BIOCONCENTRATION_FACTOR_TEST_PRED>
1276.44

>  <BOILING_POINT_DEGC_TEST_PRED>
271.857

>  <48HR_DAPHNIA_LC50_MOL/L_TEST_PRED>
1.96E-06

>  <DENSITY_G/CM^3_TEST_PRED>
0.905

>  <DEVTOX_TEST_PRED>
0.687

>  <96HR_FATHEAD_MINNOW_MOL/L_TEST_PRED>
5.13E-06

>  <FLASH_POINT_DEGC_TEST_PRED>
113.691

>  <MELTING_POINT_DEGC_TEST_PRED>
52.675

>  <AMES_MUTAGENICITY_TEST_PRED>
0.017

>  <ORAL_RAT_LD50_MOL/KG_TEST_PRED>
0.00647143

>  <SURFACE_TENSION_DYN/CM_TEST_PRED>
-

>  <THERMAL_CONDUCTIVITY_MW/(M*K)_TEST_PRED>
111.008

>  <TETRAHYMENA_PYRIFORMIS_IGC50_MOL/L_TEST_PRED>
2.90E-05

>  <VISCOSITY_CP_CP_TEST_PRED>
-

>  <VAPOR_PRESSURE_MMHG_TEST_PRED>
0.00261818

>  <WATER_SOLUBILITY_MOL/L_TEST_PRED>
5.26E-05

>  <ATMOSPHERIC_HYDROXYLATION_RATE_(AOH)_CM3/MOLECULE*SEC_OPERA_PRED>
1.46E-11

>  <BIOCONCENTRATION_FACTOR_OPERA_PRED>
1071.69

>  <BIODEGRADATION_HALF_LIFE_DAYS_DAYS_OPERA_PRED>
14.7955

>  <BOILING_POINT_DEGC_OPERA_PRED>
265.092

>  <HENRYS_LAW_ATM-M3/MOLE_OPERA_PRED>
8.00E-06

>  <OPERA_KM_DAYS_OPERA_PRED>
2.09051

>  <OCTANOL_AIR_PARTITION_COEFF_LOGKOA_OPERA_PRED>
9.28587

>  <SOIL_ADSORPTION_COEFFICIENT_KOC_L/KG_OPERA_PRED>
4489.84

>  <OCTANOL_WATER_PARTITION_LOGP_OPERA_PRED>
5.09929

>  <MELTING_POINT_DEGC_OPERA_PRED>
70.5504

>  <VAPOR_PRESSURE_MMHG_OPERA_PRED>
0.00514942

>  <WATER_SOLUBILITY_MOL/L_OPERA_PRED>
2.76E-06

>  <Shape Index>
0.4375

>  <Molecular Flexibility>
0.50111

>  <Molecular Complexity>
0.63126

>  <Electronegative Atoms>
1

>  <Stereo Centers>
0

>  <Rotatable Bonds>
2

>  <Rings Closures>
1

>  <Aromatic Rings>
1

>  <Aromatic Atoms>
6

>  <Amides>
0

>  <Amines>
0

>  <Aromatic Nitrogens>
0

>  <Shape Index 2>
0.4375

>  <Molecular Flexibility 2>
0.50111

>  <Molecular Complexity 2>
0.63126

>  <Non-C/H Atoms>
1

>  <Electronegative Atoms 2>
1

>  <Stereo Centers 2>
0

>  <Rotatable Bonds 2>
2

>  <Rings Closures 2>
1

>  <Aromatic Rings 2>
1

>  <Aromatic Atoms 2>
6

>  <sp3-Atoms>
10

>  <Amides 2>
0

>  <Amines 2>
0

>  <Aromatic Nitrogens 2>
0

>  <Basic Nitrogens>
0

$$$$
4-Methylbenzophenone
Actelion Java MolfileCreator 2.0

  0  0  0  0  0  0              0 V3000
M  V30 BEGIN CTAB
M  V30 COUNTS 15 16 0 0 0
M  V30 BEGIN ATOM
M  V30 1 O 0.0 0.0 0.0 0
M  V30 2 C -1.3065 0.7533 0.0 0
M  V30 3 C -1.3183 2.26 0.0 0
M  V30 4 C -2.6131 0.0235 0.0 0
M  V30 5 C -0.0353 3.0133 0.0 0
M  V30 6 C -2.6249 3.0133 0.0 0
M  V30 7 C -3.9197 0.7768 0.0 0
M  V30 8 C -2.6249 -1.4596 0.0 0
M  V30 9 C -0.047 4.52 0.0 0
M  V30 10 C -2.6367 4.52 0.0 0
M  V30 11 C -5.2263 0.047 0.0 0
M  V30 12 C -3.9315 -2.1894 0.0 0
M  V30 13 C -1.3536 5.2734 0.0 0
M  V30 14 C -5.2381 -1.436 0.0 0
M  V30 15 C -1.3654 6.7801 0.0 0
M  V30 END ATOM
M  V30 BEGIN BOND
M  V30 1 2 1 2
M  V30 2 1 2 3
M  V30 3 1 2 4
M  V30 4 2 3 5
M  V30 5 1 3 6
M  V30 6 2 4 7
M  V30 7 1 4 8
M  V30 8 1 5 9
M  V30 9 2 6 10
M  V30 10 1 7 11
M  V30 11 2 8 12
M  V30 12 2 9 13
M  V30 13 2 11 14
M  V30 14 1 13 15
M  V30 15 1 10 13
M  V30 16 1 12 14
M  V30 END BOND
M  V30 END CTAB
M  END
>  <Molecule Name>
4-Methylbenzophenone

>  <Order (spectra)>
31

>  <NAME>
4-Methylbenzophenone

>  <Molecular Formula>
C14H12O

>  <Monoisotopic Mass>
196.088815

>  <SMILES>
CC1=CC=C(C=C1)C(=O)C1=CC=CC=C1

>  <InChI>
InChI=1S/C14H12O/c1-11-7-9-13(10-8-11)14(15)12-5-3-2-4-6-12/h2-10H,1H3

>  <InChIKey>
WXPWZZHELZEVPO-UHFFFAOYSA-N

>  <Kingdom>
Organic compounds

>  <Superclass>
Benzenoids

>  <Class>
Benzene and substituted derivatives

>  <Subclass>
Benzophenones

>  <Parent Level 1>
Benzophenones

>  <Parent Level 2>


>  <Parent Level 3>


>  <cLogP>
3.1335

>  <cLogS>
-4.06

>  <Druglikeness>
-1.1727

>  <NP-class probability>
0.39

>  <SmilesFragFp 3>


>  <MS_READY_SMILES>
CC1=CC=C(C=C1)C(=O)C1=CC=CC=C1

>  <MS_READY_InChI>
InChI=1S/C14H12O/c1-11-7-9-13(10-8-11)14(15)12-5-3-2-4-6-12/h2-10H,1H3

>  <QSAR_READY_SMILES>
CC1=CC=C(C=C1)C(=O)C1=CC=CC=C1

>  <QSAR_READY_InChI>
InChI=1S/C14H12O/c1-11-7-9-13(10-8-11)14(15)12-5-3-2-4-6-12/h2-10H,1H3

>  <DTXSID>
DTXSID9037741

>  <DTXCID>
DTXCID7017741

>  <CASRN>
134-84-9

>  <EXPOCAST_MEDIAN_EXPOSURE_PREDICTION_MG/KG-BW/DAY>
9.81E-05

>  <BIOCONCENTRATION_FACTOR_TEST_PRED>
64.5654

>  <BOILING_POINT_DEGC_TEST_PRED>
314.026

>  <48HR_DAPHNIA_LC50_MOL/L_TEST_PRED>
1.17E-05

>  <DENSITY_G/CM^3_TEST_PRED>
1.07

>  <DEVTOX_TEST_PRED>
0.496

>  <96HR_FATHEAD_MINNOW_MOL/L_TEST_PRED>
2.55E-05

>  <FLASH_POINT_DEGC_TEST_PRED>
135.795

>  <MELTING_POINT_DEGC_TEST_PRED>
64.415

>  <AMES_MUTAGENICITY_TEST_PRED>
0.294

>  <ORAL_RAT_LD50_MOL/KG_TEST_PRED>
0.0140281

>  <SURFACE_TENSION_DYN/CM_TEST_PRED>
-

>  <THERMAL_CONDUCTIVITY_MW/(M*K)_TEST_PRED>
-

>  <TETRAHYMENA_PYRIFORMIS_IGC50_MOL/L_TEST_PRED>
7.66E-05

>  <VISCOSITY_CP_CP_TEST_PRED>
8.64968

>  <VAPOR_PRESSURE_MMHG_TEST_PRED>
0.00013122

>  <WATER_SOLUBILITY_MOL/L_TEST_PRED>
7.59E-05

>  <ATMOSPHERIC_HYDROXYLATION_RATE_(AOH)_CM3/MOLECULE*SEC_OPERA_PRED>
7.46E-12

>  <BIOCONCENTRATION_FACTOR_OPERA_PRED>
100.846

>  <BIODEGRADATION_HALF_LIFE_DAYS_DAYS_OPERA_PRED>
9.98249

>  <BOILING_POINT_DEGC_OPERA_PRED>
312.531

>  <HENRYS_LAW_ATM-M3/MOLE_OPERA_PRED>
5.89E-06

>  <OPERA_KM_DAYS_OPERA_PRED>
0.0919369

>  <OCTANOL_AIR_PARTITION_COEFF_LOGKOA_OPERA_PRED>
7.45628

>  <SOIL_ADSORPTION_COEFFICIENT_KOC_L/KG_OPERA_PRED>
649.71

>  <OCTANOL_WATER_PARTITION_LOGP_OPERA_PRED>
3.30577

>  <MELTING_POINT_DEGC_OPERA_PRED>
60.0205

>  <VAPOR_PRESSURE_MMHG_OPERA_PRED>
0.00054783

>  <WATER_SOLUBILITY_MOL/L_OPERA_PRED>
4.61E-05

>  <Shape Index>
0.66667

>  <Molecular Flexibility>
0.51302

>  <Molecular Complexity>
0.4995

>  <Electronegative Atoms>
1

>  <Stereo Centers>
0

>  <Rotatable Bonds>
2

>  <Rings Closures>
2

>  <Aromatic Rings>
2

>  <Aromatic Atoms>
12

>  <Amides>
0

>  <Amines>
0

>  <Aromatic Nitrogens>
0

>  <Shape Index 2>
0.66667

>  <Molecular Flexibility 2>
0.51302

>  <Molecular Complexity 2>
0.4995

>  <Non-C/H Atoms>
1

>  <Electronegative Atoms 2>
1

>  <Stereo Centers 2>
0

>  <Rotatable Bonds 2>
2

>  <Rings Closures 2>
2

>  <Aromatic Rings 2>
2

>  <Aromatic Atoms 2>
12

>  <sp3-Atoms>
1

>  <Amides 2>
0

>  <Amines 2>
0

>  <Aromatic Nitrogens 2>
0

>  <Basic Nitrogens>
0

$$$$
2,6-Dichloro-4-nitroaniline
Actelion Java MolfileCreator 2.0

  0  0  0  0  0  0              0 V3000
M  V30 BEGIN CTAB
M  V30 COUNTS 12 12 0 0 0
M  V30 BEGIN ATOM
M  V30 1 Cl 0.0 0.0 0.0 0
M  V30 2 C -0.0117 1.5077 0.0 0
M  V30 3 C 1.2721 2.2615 0.0 0
M  V30 4 C -1.3192 2.2615 0.0 0
M  V30 5 N 2.556 1.5312 0.0 0
M  V30 6 C 1.2603 3.7692 0.0 0
M  V30 7 C -1.331 3.7692 0.0 0
M  V30 8 Cl 2.5442 4.5231 0.0 0
M  V30 9 C -0.0471 4.5231 0.0 0
M  V30 10 N -2.6384 4.5231 0.0 0 CHG=1
M  V30 11 O -2.6502 6.0308 0.0 0
M  V30 12 O -3.9459 3.7928 0.0 0 CHG=-1
M  V30 END ATOM
M  V30 BEGIN BOND
M  V30 1 1 1 2
M  V30 2 2 2 3
M  V30 3 1 2 4
M  V30 4 1 3 5
M  V30 5 1 3 6
M  V30 6 2 4 7
M  V30 7 1 6 8
M  V30 8 2 6 9
M  V30 9 1 7 10
M  V30 10 2 10 11
M  V30 11 1 10 12
M  V30 12 1 7 9
M  V30 END BOND
M  V30 END CTAB
M  END
>  <Molecule Name>
2,6-Dichloro-4-nitroaniline

>  <Order (spectra)>
33

>  <NAME>
2,6-Dichloro-4-nitroaniline

>  <Molecular Formula>
C6H4N2O2Cl2

>  <Monoisotopic Mass>
205.964982

>  <SMILES>
NC1=C(Cl)C=C(C=C1Cl)[N+]([O-])=O

>  <InChI>
InChI=1S/C6H4Cl2N2O2/c7-4-1-3(10(11)12)2-5(8)6(4)9/h1-2H,9H2

>  <InChIKey>
BIXZHMJUSMUDOQ-UHFFFAOYSA-N

>  <Kingdom>
Organic compounds

>  <Superclass>
Benzenoids

>  <Class>
Benzene and substituted derivatives

>  <Subclass>
Nitrobenzenes

>  <Parent Level 1>
Nitrobenzenes

>  <Parent Level 2>


>  <Parent Level 3>


>  <cLogP>
1.2727

>  <cLogS>
-3.624

>  <Druglikeness>
-7.0299

>  <NP-class probability>
0.68

>  <SmilesFragFp 3>


>  <MS_READY_SMILES>
NC1=C(Cl)C=C(C=C1Cl)[N+]([O-])=O

>  <MS_READY_InChI>
InChI=1S/C6H4Cl2N2O2/c7-4-1-3(10(11)12)2-5(8)6(4)9/h1-2H,9H2

>  <QSAR_READY_SMILES>
NC1=C(Cl)C=C(C=C1Cl)[N+]([O-])=O

>  <QSAR_READY_InChI>
InChI=1S/C6H4Cl2N2O2/c7-4-1-3(10(11)12)2-5(8)6(4)9/h1-2H,9H2

>  <DTXSID>
DTXSID2020426

>  <DTXCID>
DTXCID60426

>  <CASRN>
99-30-9

>  <EXPOCAST_MEDIAN_EXPOSURE_PREDICTION_MG/KG-BW/DAY>
1.93E-06

>  <BIOCONCENTRATION_FACTOR_TEST_PRED>
15.4882

>  <BOILING_POINT_DEGC_TEST_PRED>
321.659

>  <48HR_DAPHNIA_LC50_MOL/L_TEST_PRED>
7.38E-06

>  <DENSITY_G/CM^3_TEST_PRED>
1.574

>  <DEVTOX_TEST_PRED>
0.212

>  <96HR_FATHEAD_MINNOW_MOL/L_TEST_PRED>
5.15E-05

>  <FLASH_POINT_DEGC_TEST_PRED>
156.247

>  <MELTING_POINT_DEGC_TEST_PRED>
130.321

>  <AMES_MUTAGENICITY_TEST_PRED>
0.783

>  <ORAL_RAT_LD50_MOL/KG_TEST_PRED>
0.0111429

>  <SURFACE_TENSION_DYN/CM_TEST_PRED>
-

>  <THERMAL_CONDUCTIVITY_MW/(M*K)_TEST_PRED>
151.226

>  <TETRAHYMENA_PYRIFORMIS_IGC50_MOL/L_TEST_PRED>
5.31E-05

>  <VISCOSITY_CP_CP_TEST_PRED>
5.67545

>  <VAPOR_PRESSURE_MMHG_TEST_PRED>
5.56E-05

>  <WATER_SOLUBILITY_MOL/L_TEST_PRED>
0.000311172

>  <ATMOSPHERIC_HYDROXYLATION_RATE_(AOH)_CM3/MOLECULE*SEC_OPERA_PRED>
1.53E-12

>  <BIOCONCENTRATION_FACTOR_OPERA_PRED>
15.5603

>  <BIODEGRADATION_HALF_LIFE_DAYS_DAYS_OPERA_PRED>
4.95998

>  <BOILING_POINT_DEGC_OPERA_PRED>
319.571

>  <HENRYS_LAW_ATM-M3/MOLE_OPERA_PRED>
3.08E-09

>  <OPERA_KM_DAYS_OPERA_PRED>
0.272927

>  <OCTANOL_AIR_PARTITION_COEFF_LOGKOA_OPERA_PRED>
8.46152

>  <SOIL_ADSORPTION_COEFFICIENT_KOC_L/KG_OPERA_PRED>
995.914

>  <OCTANOL_WATER_PARTITION_LOGP_OPERA_PRED>
2.7987

>  <MELTING_POINT_DEGC_OPERA_PRED>
190.812

>  <VAPOR_PRESSURE_MMHG_OPERA_PRED>
1.21E-06

>  <WATER_SOLUBILITY_MOL/L_OPERA_PRED>
0.000033186

>  <Shape Index>
0.58333

>  <Molecular Flexibility>
0.29781

>  <Molecular Complexity>
0.71278

>  <Electronegative Atoms>
6

>  <Stereo Centers>
0

>  <Rotatable Bonds>
1

>  <Rings Closures>
1

>  <Aromatic Rings>
1

>  <Aromatic Atoms>
6

>  <Amides>
0

>  <Amines>
1

>  <Aromatic Nitrogens>
0

>  <Shape Index 2>
0.58333

>  <Molecular Flexibility 2>
0.29781

>  <Molecular Complexity 2>
0.71278

>  <Non-C/H Atoms>
6

>  <Electronegative Atoms 2>
6

>  <Stereo Centers 2>
0

>  <Rotatable Bonds 2>
1

>  <Rings Closures 2>
1

>  <Aromatic Rings 2>
1

>  <Aromatic Atoms 2>
6

>  <sp3-Atoms>
2

>  <Amides 2>
0

>  <Amines 2>
1

>  <Aromatic Nitrogens 2>
0

>  <Basic Nitrogens>
0

$$$$
Triclosan
Actelion Java MolfileCreator 2.0

  0  0  0  0  0  0              0 V3000
M  V30 BEGIN CTAB
M  V30 COUNTS 17 18 0 0 0
M  V30 BEGIN ATOM
M  V30 1 Cl 0.0 0.0 0.0 0
M  V30 2 C -0.0118 -1.4888 0.0 0
M  V30 3 C -1.3234 -2.2333 0.0 0
M  V30 4 C 1.2761 -2.2215 0.0 0
M  V30 5 O -2.6351 -1.477 0.0 0
M  V30 6 C -1.3352 -3.7222 0.0 0
M  V30 7 C 1.2643 -3.7104 0.0 0
M  V30 8 C -3.9467 -2.2215 0.0 0
M  V30 9 C -0.0472 -4.4548 0.0 0
M  V30 10 Cl 2.5523 -4.4548 0.0 0
M  V30 11 C -5.2584 -1.4652 0.0 0
M  V30 12 C -3.9585 -3.7104 0.0 0
M  V30 13 O -5.2702 0.0472 0.0 0
M  V30 14 C -6.57 -2.1978 0.0 0
M  V30 15 C -5.2702 -4.4548 0.0 0
M  V30 16 C -6.5818 -3.6867 0.0 0
M  V30 17 Cl -7.8935 -4.4312 0.0 0
M  V30 END ATOM
M  V30 BEGIN BOND
M  V30 1 1 1 2
M  V30 2 2 2 3
M  V30 3 1 2 4
M  V30 4 1 3 5
M  V30 5 1 3 6
M  V30 6 2 4 7
M  V30 7 1 5 8
M  V30 8 2 6 9
M  V30 9 1 7 10
M  V30 10 2 8 11
M  V30 11 1 8 12
M  V30 12 1 11 13
M  V30 13 1 11 14
M  V30 14 2 12 15
M  V30 15 2 14 16
M  V30 16 1 16 17
M  V30 17 1 7 9
M  V30 18 1 15 16
M  V30 END BOND
M  V30 END CTAB
M  END
>  <Molecule Name>
Triclosan

>  <Order (spectra)>
35

>  <NAME>
Triclosan

>  <Molecular Formula>
C12H7O2Cl3

>  <Monoisotopic Mass>
287.951161

>  <SMILES>
OC1=C(OC2=CC=C(Cl)C=C2Cl)C=CC(Cl)=C1

>  <InChI>
InChI=1S/C12H7Cl3O2/c13-7-1-3-11(9(15)5-7)17-12-4-2-8(14)6-10(12)16/h1-6,16H

>  <InChIKey>
XEFQLINVKFYRCS-UHFFFAOYSA-N

>  <Kingdom>
Organic compounds

>  <Superclass>
Benzenoids

>  <Class>
Benzene and substituted derivatives

>  <Subclass>
Diphenylethers

>  <Parent Level 1>
Diphenylethers

>  <Parent Level 2>


>  <Parent Level 3>


>  <cLogP>
4.5275

>  <cLogS>
-5.825

>  <Druglikeness>
-2.0066

>  <NP-class probability>
0.99

>  <SmilesFragFp 3>


>  <MS_READY_SMILES>
OC1=C(OC2=CC=C(Cl)C=C2Cl)C=CC(Cl)=C1

>  <MS_READY_InChI>
InChI=1S/C12H7Cl3O2/c13-7-1-3-11(9(15)5-7)17-12-4-2-8(14)6-10(12)16/h1-6,16H

>  <QSAR_READY_SMILES>
OC1=C(OC2=CC=C(Cl)C=C2Cl)C=CC(Cl)=C1

>  <QSAR_READY_InChI>
InChI=1S/C12H7Cl3O2/c13-7-1-3-11(9(15)5-7)17-12-4-2-8(14)6-10(12)16/h1-6,16H

>  <DTXSID>
DTXSID5032498

>  <DTXCID>
DTXCID3012498

>  <CASRN>
3380-34-5

>  <EXPOCAST_MEDIAN_EXPOSURE_PREDICTION_MG/KG-BW/DAY>
1.93E-05

>  <BIOCONCENTRATION_FACTOR_TEST_PRED>
1698.24

>  <BOILING_POINT_DEGC_TEST_PRED>
369.746

>  <48HR_DAPHNIA_LC50_MOL/L_TEST_PRED>
8.32E-07

>  <DENSITY_G/CM^3_TEST_PRED>
1.523

>  <DEVTOX_TEST_PRED>
0.627

>  <96HR_FATHEAD_MINNOW_MOL/L_TEST_PRED>
4.06E-07

>  <FLASH_POINT_DEGC_TEST_PRED>
168.637

>  <MELTING_POINT_DEGC_TEST_PRED>
140.93

>  <AMES_MUTAGENICITY_TEST_PRED>
0.402

>  <ORAL_RAT_LD50_MOL/KG_TEST_PRED>
4.68E-05

>  <SURFACE_TENSION_DYN/CM_TEST_PRED>
-

>  <THERMAL_CONDUCTIVITY_MW/(M*K)_TEST_PRED>
131.73

>  <TETRAHYMENA_PYRIFORMIS_IGC50_MOL/L_TEST_PRED>
2.69E-06

>  <VISCOSITY_CP_CP_TEST_PRED>
-

>  <VAPOR_PRESSURE_MMHG_TEST_PRED>
4.53E-06

>  <WATER_SOLUBILITY_MOL/L_TEST_PRED>
4.54E-06

>  <ATMOSPHERIC_HYDROXYLATION_RATE_(AOH)_CM3/MOLECULE*SEC_OPERA_PRED>
1.74E-11

>  <BIOCONCENTRATION_FACTOR_OPERA_PRED>
52.8927

>  <BIODEGRADATION_HALF_LIFE_DAYS_DAYS_OPERA_PRED>
4.50619

>  <BOILING_POINT_DEGC_OPERA_PRED>
342.341

>  <HENRYS_LAW_ATM-M3/MOLE_OPERA_PRED>
6.52E-10

>  <OPERA_KM_DAYS_OPERA_PRED>
0.444158

>  <OCTANOL_AIR_PARTITION_COEFF_LOGKOA_OPERA_PRED>
10.5464

>  <SOIL_ADSORPTION_COEFFICIENT_KOC_L/KG_OPERA_PRED>
36570.1

>  <OCTANOL_WATER_PARTITION_LOGP_OPERA_PRED>
4.7624

>  <MELTING_POINT_DEGC_OPERA_PRED>
55.8132

>  <VAPOR_PRESSURE_MMHG_OPERA_PRED>
2.46E-07

>  <WATER_SOLUBILITY_MOL/L_OPERA_PRED>
3.45E-05

>  <Shape Index>
0.64706

>  <Molecular Flexibility>
0.46139

>  <Molecular Complexity>
0.68976

>  <Electronegative Atoms>
5

>  <Stereo Centers>
0

>  <Rotatable Bonds>
2

>  <Rings Closures>
2

>  <Aromatic Rings>
2

>  <Aromatic Atoms>
12

>  <Amides>
0

>  <Amines>
0

>  <Aromatic Nitrogens>
0

>  <Shape Index 2>
0.64706

>  <Molecular Flexibility 2>
0.46139

>  <Molecular Complexity 2>
0.68976

>  <Non-C/H Atoms>
5

>  <Electronegative Atoms 2>
5

>  <Stereo Centers 2>
0

>  <Rotatable Bonds 2>
2

>  <Rings Closures 2>
2

>  <Aromatic Rings 2>
2

>  <Aromatic Atoms 2>
12

>  <sp3-Atoms>
2

>  <Amides 2>
0

>  <Amines 2>
0

>  <Aromatic Nitrogens 2>
0

>  <Basic Nitrogens>
0

$$$$
2,2',3,4,5,5',6-Heptachlorobiphenyl
Actelion Java MolfileCreator 2.0

  0  0  0  0  0  0              0 V3000
M  V30 BEGIN CTAB
M  V30 COUNTS 19 20 0 0 0
M  V30 BEGIN ATOM
M  V30 1 Cl 0.0 0.0 0.0 0
M  V30 2 C -1.3102 -0.7318 0.0 0
M  V30 3 C -2.6205 0.0236 0.0 0
M  V30 4 C -1.322 -2.2192 0.0 0
M  V30 5 Cl -2.6323 1.5345 0.0 0
M  V30 6 C -3.9308 -0.7082 0.0 0
M  V30 7 Cl -0.0354 -2.9629 0.0 0
M  V30 8 C -2.6323 -2.9511 0.0 0
M  V30 9 Cl -5.2411 0.0472 0.0 0
M  V30 10 C -3.9426 -2.1956 0.0 0
M  V30 11 Cl -2.6441 -4.4384 0.0 0
M  V30 12 C -5.2529 -2.9274 0.0 0
M  V30 13 C -6.5632 -2.172 0.0 0
M  V30 14 C -5.2647 -4.4148 0.0 0
M  V30 15 Cl -6.575 -0.661 0.0 0
M  V30 16 C -7.8735 -2.9038 0.0 0
M  V30 17 C -6.575 -5.1467 0.0 0
M  V30 18 C -7.8853 -4.3912 0.0 0
M  V30 19 Cl -6.5868 -6.634 0.0 0
M  V30 END ATOM
M  V30 BEGIN BOND
M  V30 1 1 1 2
M  V30 2 2 2 3
M  V30 3 1 2 4
M  V30 4 1 3 5
M  V30 5 1 3 6
M  V30 6 1 4 7
M  V30 7 2 4 8
M  V30 8 1 6 9
M  V30 9 2 6 10
M  V30 10 1 8 11
M  V30 11 1 10 12
M  V30 12 2 12 13
M  V30 13 1 12 14
M  V30 14 1 13 15
M  V30 15 1 13 16
M  V30 16 2 14 17
M  V30 17 2 16 18
M  V30 18 1 17 19
M  V30 19 1 8 10
M  V30 20 1 17 18
M  V30 END BOND
M  V30 END CTAB
M  END
>  <Molecule Name>
2,2',3,4,5,5',6-Heptachlorobiphenyl

>  <Order (spectra)>
41

>  <NAME>
2,2',3,4,5,5',6-Heptachlorobiphenyl

>  <Molecular Formula>
C12H3Cl7

>  <Monoisotopic Mass>
391.805439

>  <SMILES>
ClC1=CC(=C(Cl)C=C1)C1=C(Cl)C(Cl)=C(Cl)C(Cl)=C1Cl

>  <InChI>
InChI=1S/C12H3Cl7/c13-4-1-2-6(14)5(3-4)7-8(15)10(17)12(19)11(18)9(7)16/h1-3H

>  <InChIKey>
PYZHTHZEHQHHEN-UHFFFAOYSA-N

>  <Kingdom>
Organic compounds

>  <Superclass>
Benzenoids

>  <Class>
Benzene and substituted derivatives

>  <Subclass>
Biphenyls and derivatives

>  <Parent Level 1>
Chlorinated biphenyls

>  <Parent Level 2>
Polychlorinated biphenyls

>  <Parent Level 3>


>  <cLogP>
7.5608

>  <cLogS>
-8.854

>  <Druglikeness>
-1.9661

>  <NP-class probability>
0.01

>  <SmilesFragFp 3>


>  <MS_READY_SMILES>
ClC1=CC(=C(Cl)C=C1)C1=C(Cl)C(Cl)=C(Cl)C(Cl)=C1Cl

>  <MS_READY_InChI>
InChI=1S/C12H3Cl7/c13-4-1-2-6(14)5(3-4)7-8(15)10(17)12(19)11(18)9(7)16/h1-3H

>  <QSAR_READY_SMILES>
ClC1=CC(=C(Cl)C=C1)C1=C(Cl)C(Cl)=C(Cl)C(Cl)=C1Cl

>  <QSAR_READY_InChI>
InChI=1S/C12H3Cl7/c13-4-1-2-6(14)5(3-4)7-8(15)10(17)12(19)11(18)9(7)16/h1-3H

>  <DTXSID>
DTXSID1074175

>  <DTXCID>
DTXCID0041272

>  <CASRN>
52712-05-7

>  <EXPOCAST_MEDIAN_EXPOSURE_PREDICTION_MG/KG-BW/DAY>
2.60E-12

>  <BIOCONCENTRATION_FACTOR_TEST_PRED>
152405

>  <BOILING_POINT_DEGC_TEST_PRED>
416.984

>  <48HR_DAPHNIA_LC50_MOL/L_TEST_PRED>
5.41E-09

>  <DENSITY_G/CM^3_TEST_PRED>
1.74

>  <DEVTOX_TEST_PRED>
0.446

>  <96HR_FATHEAD_MINNOW_MOL/L_TEST_PRED>
4.33E-09

>  <FLASH_POINT_DEGC_TEST_PRED>
195.289

>  <MELTING_POINT_DEGC_TEST_PRED>
126.875

>  <AMES_MUTAGENICITY_TEST_PRED>
-0.012

>  <ORAL_RAT_LD50_MOL/KG_TEST_PRED>
9.12E-05

>  <SURFACE_TENSION_DYN/CM_TEST_PRED>
-

>  <THERMAL_CONDUCTIVITY_MW/(M*K)_TEST_PRED>
116.859

>  <TETRAHYMENA_PYRIFORMIS_IGC50_MOL/L_TEST_PRED>
2.96E-07

>  <VISCOSITY_CP_CP_TEST_PRED>
-

>  <VAPOR_PRESSURE_MMHG_TEST_PRED>
6.19E-07

>  <WATER_SOLUBILITY_MOL/L_TEST_PRED>
1.75E-09

>  <ATMOSPHERIC_HYDROXYLATION_RATE_(AOH)_CM3/MOLECULE*SEC_OPERA_PRED>
6.80E-13

>  <BIOCONCENTRATION_FACTOR_OPERA_PRED>
449465

>  <BIODEGRADATION_HALF_LIFE_DAYS_DAYS_OPERA_PRED>
16.2959

>  <BOILING_POINT_DEGC_OPERA_PRED>
404.08

>  <HENRYS_LAW_ATM-M3/MOLE_OPERA_PRED>
1.58E-05

>  <OPERA_KM_DAYS_OPERA_PRED>
301.813

>  <OCTANOL_AIR_PARTITION_COEFF_LOGKOA_OPERA_PRED>
10.242

>  <SOIL_ADSORPTION_COEFFICIENT_KOC_L/KG_OPERA_PRED>
891149

>  <OCTANOL_WATER_PARTITION_LOGP_OPERA_PRED>
7.46469

>  <MELTING_POINT_DEGC_OPERA_PRED>
97.2547

>  <VAPOR_PRESSURE_MMHG_OPERA_PRED>
4.91E-07

>  <WATER_SOLUBILITY_MOL/L_OPERA_PRED>
5.28E-09

>  <Shape Index>
0.47368

>  <Molecular Flexibility>
0.3089

>  <Molecular Complexity>
0.81194

>  <Electronegative Atoms>
7

>  <Stereo Centers>
0

>  <Rotatable Bonds>
1

>  <Rings Closures>
2

>  <Aromatic Rings>
2

>  <Aromatic Atoms>
12

>  <Amides>
0

>  <Amines>
0

>  <Aromatic Nitrogens>
0

>  <Shape Index 2>
0.47368

>  <Molecular Flexibility 2>
0.3089

>  <Molecular Complexity 2>
0.81194

>  <Non-C/H Atoms>
7

>  <Electronegative Atoms 2>
7

>  <Stereo Centers 2>
0

>  <Rotatable Bonds 2>
1

>  <Rings Closures 2>
2

>  <Aromatic Rings 2>
2

>  <Aromatic Atoms 2>
12

>  <sp3-Atoms>
0

>  <Amides 2>
0

>  <Amines 2>
0

>  <Aromatic Nitrogens 2>
0

>  <Basic Nitrogens>
0

$$$$
2,4,6-Trichlorobiphenyl
Actelion Java MolfileCreator 2.0

  0  0  0  0  0  0              0 V3000
M  V30 BEGIN CTAB
M  V30 COUNTS 15 16 0 0 0
M  V30 BEGIN ATOM
M  V30 1 Cl 0.0 0.0 0.0 0
M  V30 2 C -1.3059 -0.7294 0.0 0
M  V30 3 C -2.6118 0.0235 0.0 0
M  V30 4 C -1.3177 -2.2118 0.0 0
M  V30 5 C -3.9178 -0.7059 0.0 0
M  V30 6 C -2.6236 1.5294 0.0 0
M  V30 7 C -2.6236 -2.9413 0.0 0
M  V30 8 Cl -5.2237 0.047 0.0 0
M  V30 9 C -3.9295 -2.1883 0.0 0
M  V30 10 C -1.3412 2.2824 0.0 0
M  V30 11 C -3.9295 2.2824 0.0 0
M  V30 12 C -1.353 3.7884 0.0 0
M  V30 13 C -3.9413 3.7884 0.0 0
M  V30 14 C -2.6589 4.5531 0.0 0
M  V30 15 Cl -2.6707 6.0591 0.0 0
M  V30 END ATOM
M  V30 BEGIN BOND
M  V30 1 1 1 2
M  V30 2 2 2 3
M  V30 3 1 2 4
M  V30 4 1 3 5
M  V30 5 1 3 6
M  V30 6 2 4 7
M  V30 7 1 5 8
M  V30 8 2 5 9
M  V30 9 2 6 10
M  V30 10 1 6 11
M  V30 11 1 10 12
M  V30 12 2 11 13
M  V30 13 2 12 14
M  V30 14 1 14 15
M  V30 15 1 7 9
M  V30 16 1 13 14
M  V30 END BOND
M  V30 END CTAB
M  END
>  <Molecule Name>
2,4,6-Trichlorobiphenyl

>  <Order (spectra)>
42

>  <NAME>
2,4,6-Trichlorobiphenyl

>  <Molecular Formula>
C12H7Cl3

>  <Monoisotopic Mass>
255.961331

>  <SMILES>
ClC1=CC=C(C=C1)C1=C(Cl)C=CC=C1Cl

>  <InChI>
InChI=1S/C12H7Cl3/c13-9-6-4-8(5-7-9)12-10(14)2-1-3-11(12)15/h1-7H

>  <InChIKey>
IHIDFKLAWYPTKB-UHFFFAOYSA-N

>  <Kingdom>
Organic compounds

>  <Superclass>
Benzenoids

>  <Class>
Benzene and substituted derivatives

>  <Subclass>
Biphenyls and derivatives

>  <Parent Level 1>
Chlorinated biphenyls

>  <Parent Level 2>
Polychlorinated biphenyls

>  <Parent Level 3>


>  <cLogP>
5.1368

>  <cLogS>
-5.91

>  <Druglikeness>
-1.9661

>  <NP-class probability>
0.01

>  <SmilesFragFp 3>


>  <MS_READY_SMILES>
ClC1=CC=C(C=C1)C1=C(Cl)C=CC=C1Cl

>  <MS_READY_InChI>
InChI=1S/C12H7Cl3/c13-9-6-4-8(5-7-9)12-10(14)2-1-3-11(12)15/h1-7H

>  <QSAR_READY_SMILES>
ClC1=CC=C(C=C1)C1=C(Cl)C=CC=C1Cl

>  <QSAR_READY_InChI>
InChI=1S/C12H7Cl3/c13-9-6-4-8(5-7-9)12-10(14)2-1-3-11(12)15/h1-7H

>  <DTXSID>
DTXSID8073500

>  <DTXCID>
DTXCID6039504

>  <CASRN>
38444-77-8

>  <EXPOCAST_MEDIAN_EXPOSURE_PREDICTION_MG/KG-BW/DAY>
7.65E-12

>  <BIOCONCENTRATION_FACTOR_TEST_PRED>
12416.5

>  <BOILING_POINT_DEGC_TEST_PRED>
327.515

>  <48HR_DAPHNIA_LC50_MOL/L_TEST_PRED>
2.26E-07

>  <DENSITY_G/CM^3_TEST_PRED>
1.337

>  <DEVTOX_TEST_PRED>
0.277

>  <96HR_FATHEAD_MINNOW_MOL/L_TEST_PRED>
7.05E-07

>  <FLASH_POINT_DEGC_TEST_PRED>
147.406

>  <MELTING_POINT_DEGC_TEST_PRED>
85.299

>  <AMES_MUTAGENICITY_TEST_PRED>
0.062

>  <ORAL_RAT_LD50_MOL/KG_TEST_PRED>
0.00110408

>  <SURFACE_TENSION_DYN/CM_TEST_PRED>
-

>  <THERMAL_CONDUCTIVITY_MW/(M*K)_TEST_PRED>
124.686

>  <TETRAHYMENA_PYRIFORMIS_IGC50_MOL/L_TEST_PRED>
2.13E-06

>  <VISCOSITY_CP_CP_TEST_PRED>
-

>  <VAPOR_PRESSURE_MMHG_TEST_PRED>
0.000297852

>  <WATER_SOLUBILITY_MOL/L_TEST_PRED>
9.31E-07

>  <ATMOSPHERIC_HYDROXYLATION_RATE_(AOH)_CM3/MOLECULE*SEC_OPERA_PRED>
1.12E-12

>  <BIOCONCENTRATION_FACTOR_OPERA_PRED>
16704

>  <BIODEGRADATION_HALF_LIFE_DAYS_DAYS_OPERA_PRED>
19.212

>  <BOILING_POINT_DEGC_OPERA_PRED>
343.69

>  <HENRYS_LAW_ATM-M3/MOLE_OPERA_PRED>
0.000200279

>  <OPERA_KM_DAYS_OPERA_PRED>
274.151

>  <OCTANOL_AIR_PARTITION_COEFF_LOGKOA_OPERA_PRED>
7.78147

>  <SOIL_ADSORPTION_COEFFICIENT_KOC_L/KG_OPERA_PRED>
55269.9

>  <OCTANOL_WATER_PARTITION_LOGP_OPERA_PRED>
5.74664

>  <MELTING_POINT_DEGC_OPERA_PRED>
83.0507

>  <VAPOR_PRESSURE_MMHG_OPERA_PRED>
0.000239262

>  <WATER_SOLUBILITY_MOL/L_OPERA_PRED>
6.95E-07

>  <Shape Index>
0.6

>  <Molecular Flexibility>
0.36039

>  <Molecular Complexity>
0.66485

>  <Electronegative Atoms>
3

>  <Stereo Centers>
0

>  <Rotatable Bonds>
1

>  <Rings Closures>
2

>  <Aromatic Rings>
2

>  <Aromatic Atoms>
12

>  <Amides>
0

>  <Amines>
0

>  <Aromatic Nitrogens>
0

>  <Shape Index 2>
0.6

>  <Molecular Flexibility 2>
0.36039

>  <Molecular Complexity 2>
0.66485

>  <Non-C/H Atoms>
3

>  <Electronegative Atoms 2>
3

>  <Stereo Centers 2>
0

>  <Rotatable Bonds 2>
1

>  <Rings Closures 2>
2

>  <Aromatic Rings 2>
2

>  <Aromatic Atoms 2>
12

>  <sp3-Atoms>
0

>  <Amides 2>
0

>  <Amines 2>
0

>  <Aromatic Nitrogens 2>
0

>  <Basic Nitrogens>
0

$$$$
2,2',3,3',4,5',6,6'-Octachlorobiphenyl
Actelion Java MolfileCreator 2.0

  0  0  0  0  0  0              0 V3000
M  V30 BEGIN CTAB
M  V30 COUNTS 20 21 0 0 0
M  V30 BEGIN ATOM
M  V30 1 Cl 0.0 0.0 0.0 0
M  V30 2 C -1.31 -0.7317 0.0 0
M  V30 3 C -2.6201 0.0236 0.0 0
M  V30 4 C -1.3218 -2.2188 0.0 0
M  V30 5 Cl -2.6319 1.5343 0.0 0
M  V30 6 C -3.9302 -0.7081 0.0 0
M  V30 7 Cl -0.0354 -2.9624 0.0 0
M  V30 8 C -2.6319 -2.9506 0.0 0
M  V30 9 Cl -5.2402 0.0472 0.0 0
M  V30 10 C -3.942 -2.1952 0.0 0
M  V30 11 Cl -2.6437 -4.4377 0.0 0
M  V30 12 C -5.252 -2.9269 0.0 0
M  V30 13 C -6.5621 -2.1716 0.0 0
M  V30 14 C -5.2638 -4.4141 0.0 0
M  V30 15 Cl -6.5739 -0.6609 0.0 0
M  V30 16 C -7.8722 -2.9033 0.0 0
M  V30 17 Cl -3.9774 -5.1458 0.0 0
M  V30 18 C -6.5739 -5.1458 0.0 0
M  V30 19 Cl -9.1822 -2.148 0.0 0
M  V30 20 C -7.884 -4.3904 0.0 0
M  V30 END ATOM
M  V30 BEGIN BOND
M  V30 1 1 1 2
M  V30 2 2 2 3
M  V30 3 1 2 4
M  V30 4 1 3 5
M  V30 5 1 3 6
M  V30 6 1 4 7
M  V30 7 2 4 8
M  V30 8 1 6 9
M  V30 9 2 6 10
M  V30 10 1 8 11
M  V30 11 1 10 12
M  V30 12 2 12 13
M  V30 13 1 12 14
M  V30 14 1 13 15
M  V30 15 1 13 16
M  V30 16 1 14 17
M  V30 17 2 14 18
M  V30 18 1 16 19
M  V30 19 2 16 20
M  V30 20 1 8 10
M  V30 21 1 18 20
M  V30 END BOND
M  V30 END CTAB
M  END
>  <Molecule Name>
2,2',3,3',4,5',6,6'-Octachlorobiphenyl

>  <Order (spectra)>
43

>  <NAME>
2,2',3,3',4,5',6,6'-Octachlorobiphenyl

>  <Molecular Formula>
C12H2Cl8

>  <Monoisotopic Mass>
425.766466

>  <SMILES>
ClC1=CC=C(Cl)C(=C1Cl)C1=C(Cl)C(Cl)=C(Cl)C(Cl)=C1Cl

>  <InChI>
InChI=1S/C12H2Cl8/c13-3-1-2-4(14)7(15)5(3)6-8(16)10(18)12(20)11(19)9(6)17/h1-2H

>  <InChIKey>
HHXNVASVVVNNDG-UHFFFAOYSA-N

>  <Kingdom>
Organic compounds

>  <Superclass>
Benzenoids

>  <Class>
Benzene and substituted derivatives

>  <Subclass>
Biphenyls and derivatives

>  <Parent Level 1>
Chlorinated biphenyls

>  <Parent Level 2>
Polychlorinated biphenyls

>  <Parent Level 3>


>  <cLogP>
8.1668

>  <cLogS>
-9.59

>  <Druglikeness>
-1.9661

>  <NP-class probability>
0.01

>  <SmilesFragFp 3>


>  <MS_READY_SMILES>
ClC1=CC=C(Cl)C(=C1Cl)C1=C(Cl)C(Cl)=C(Cl)C(Cl)=C1Cl

>  <MS_READY_InChI>
InChI=1S/C12H2Cl8/c13-3-1-2-4(14)7(15)5(3)6-8(16)10(18)12(20)11(19)9(6)17/h1-2H

>  <QSAR_READY_SMILES>
ClC1=CC=C(Cl)C(=C1Cl)C1=C(Cl)C(Cl)=C(Cl)C(Cl)=C1Cl

>  <QSAR_READY_InChI>
InChI=1S/C12H2Cl8/c13-3-1-2-4(14)7(15)5(3)6-8(16)10(18)12(20)11(19)9(6)17/h1-2H

>  <DTXSID>
DTXSID2074166

>  <DTXCID>
DTXCID3041245

>  <CASRN>
52663-73-7

>  <EXPOCAST_MEDIAN_EXPOSURE_PREDICTION_MG/KG-BW/DAY>
2.60E-12

>  <BIOCONCENTRATION_FACTOR_TEST_PRED>
285759

>  <BOILING_POINT_DEGC_TEST_PRED>
438.326

>  <48HR_DAPHNIA_LC50_MOL/L_TEST_PRED>
2.11E-09

>  <DENSITY_G/CM^3_TEST_PRED>
1.896

>  <DEVTOX_TEST_PRED>
0.429

>  <96HR_FATHEAD_MINNOW_MOL/L_TEST_PRED>
1.28E-09

>  <FLASH_POINT_DEGC_TEST_PRED>
206.917

>  <MELTING_POINT_DEGC_TEST_PRED>
137.351

>  <AMES_MUTAGENICITY_TEST_PRED>
-0.009

>  <ORAL_RAT_LD50_MOL/KG_TEST_PRED>
5.00E-05

>  <SURFACE_TENSION_DYN/CM_TEST_PRED>
-

>  <THERMAL_CONDUCTIVITY_MW/(M*K)_TEST_PRED>
110.086

>  <TETRAHYMENA_PYRIFORMIS_IGC50_MOL/L_TEST_PRED>
1.53E-07

>  <VISCOSITY_CP_CP_TEST_PRED>
-

>  <VAPOR_PRESSURE_MMHG_TEST_PRED>
2.18E-07

>  <WATER_SOLUBILITY_MOL/L_TEST_PRED>
3.78E-10

>  <ATMOSPHERIC_HYDROXYLATION_RATE_(AOH)_CM3/MOLECULE*SEC_OPERA_PRED>
6.89E-13

>  <BIOCONCENTRATION_FACTOR_OPERA_PRED>
494222

>  <BIODEGRADATION_HALF_LIFE_DAYS_DAYS_OPERA_PRED>
38.0436

>  <BOILING_POINT_DEGC_OPERA_PRED>
464.695

>  <HENRYS_LAW_ATM-M3/MOLE_OPERA_PRED>
1.10E-05

>  <OPERA_KM_DAYS_OPERA_PRED>
417.44

>  <OCTANOL_AIR_PARTITION_COEFF_LOGKOA_OPERA_PRED>
11.5472

>  <SOIL_ADSORPTION_COEFFICIENT_KOC_L/KG_OPERA_PRED>
1557040

>  <OCTANOL_WATER_PARTITION_LOGP_OPERA_PRED>
7.99378

>  <MELTING_POINT_DEGC_OPERA_PRED>
143.647

>  <VAPOR_PRESSURE_MMHG_OPERA_PRED>
3.80E-07

>  <WATER_SOLUBILITY_MOL/L_OPERA_PRED>
4.81E-10

>  <Shape Index>
0.45

>  <Molecular Flexibility>
0.33154

>  <Molecular Complexity>
0.82801

>  <Electronegative Atoms>
8

>  <Stereo Centers>
0

>  <Rotatable Bonds>
1

>  <Rings Closures>
2

>  <Aromatic Rings>
2

>  <Aromatic Atoms>
12

>  <Amides>
0

>  <Amines>
0

>  <Aromatic Nitrogens>
0

>  <Shape Index 2>
0.45

>  <Molecular Flexibility 2>
0.33154

>  <Molecular Complexity 2>
0.82801

>  <Non-C/H Atoms>
8

>  <Electronegative Atoms 2>
8

>  <Stereo Centers 2>
0

>  <Rotatable Bonds 2>
1

>  <Rings Closures 2>
2

>  <Aromatic Rings 2>
2

>  <Aromatic Atoms 2>
12

>  <sp3-Atoms>
0

>  <Amides 2>
0

>  <Amines 2>
0

>  <Aromatic Nitrogens 2>
0

>  <Basic Nitrogens>
0

$$$$
Pentachlorobenzene
Actelion Java MolfileCreator 2.0

  0  0  0  0  0  0              0 V3000
M  V30 BEGIN CTAB
M  V30 COUNTS 11 11 0 0 0
M  V30 BEGIN ATOM
M  V30 1 Cl 0.0 0.0 0.0 0
M  V30 2 C -1.3103 -0.7319 0.0 0
M  V30 3 C -2.6206 0.0236 0.0 0
M  V30 4 C -1.3221 -2.2193 0.0 0
M  V30 5 Cl -2.6324 1.5346 0.0 0
M  V30 6 C -3.931 -0.7082 0.0 0
M  V30 7 Cl -0.0354 -2.963 0.0 0
M  V30 8 C -2.6324 -2.9512 0.0 0
M  V30 9 Cl -5.2413 0.0472 0.0 0
M  V30 10 C -3.9428 -2.1957 0.0 0
M  V30 11 Cl -2.6442 -4.4386 0.0 0
M  V30 END ATOM
M  V30 BEGIN BOND
M  V30 1 1 1 2
M  V30 2 2 2 3
M  V30 3 1 2 4
M  V30 4 1 3 5
M  V30 5 1 3 6
M  V30 6 1 4 7
M  V30 7 2 4 8
M  V30 8 1 6 9
M  V30 9 2 6 10
M  V30 10 1 8 11
M  V30 11 1 8 10
M  V30 END BOND
M  V30 END CTAB
M  END
>  <Molecule Name>
Pentachlorobenzene

>  <Order (spectra)>
50

>  <NAME>
Pentachlorobenzene

>  <Molecular Formula>
C6HCl5

>  <Monoisotopic Mass>
247.852085

>  <SMILES>
ClC1=CC(Cl)=C(Cl)C(Cl)=C1Cl

>  <InChI>
InChI=1S/C6HCl5/c7-2-1-3(8)5(10)6(11)4(2)9/h1H

>  <InChIKey>
CEOCDNVZRAIOQZ-UHFFFAOYSA-N

>  <Kingdom>
Organic compounds

>  <Superclass>
Benzenoids

>  <Class>
Benzene and substituted derivatives

>  <Subclass>
Halobenzenes

>  <Parent Level 1>
Chlorobenzenes

>  <Parent Level 2>


>  <Parent Level 3>


>  <cLogP>
4.6896

>  <cLogS>
-5.296

>  <Druglikeness>
-2.0851

>  <NP-class probability>
0.79

>  <SmilesFragFp 3>


>  <MS_READY_SMILES>
ClC1=CC(Cl)=C(Cl)C(Cl)=C1Cl

>  <MS_READY_InChI>
InChI=1S/C6HCl5/c7-2-1-3(8)5(10)6(11)4(2)9/h1H

>  <QSAR_READY_SMILES>
ClC1=CC(Cl)=C(Cl)C(Cl)=C1Cl

>  <QSAR_READY_InChI>
InChI=1S/C6HCl5/c7-2-1-3(8)5(10)6(11)4(2)9/h1H

>  <DTXSID>
DTXSID7024247

>  <DTXCID>
DTXCID804247

>  <CASRN>
608-93-5

>  <EXPOCAST_MEDIAN_EXPOSURE_PREDICTION_MG/KG-BW/DAY>
7.68E-11

>  <BIOCONCENTRATION_FACTOR_TEST_PRED>
5741.16

>  <BOILING_POINT_DEGC_TEST_PRED>
269.476

>  <48HR_DAPHNIA_LC50_MOL/L_TEST_PRED>
3.14E-06

>  <DENSITY_G/CM^3_TEST_PRED>
1.658

>  <DEVTOX_TEST_PRED>
0.396

>  <96HR_FATHEAD_MINNOW_MOL/L_TEST_PRED>
1.91E-06

>  <FLASH_POINT_DEGC_TEST_PRED>
125.045

>  <MELTING_POINT_DEGC_TEST_PRED>
104.594

>  <AMES_MUTAGENICITY_TEST_PRED>
-0.033

>  <ORAL_RAT_LD50_MOL/KG_TEST_PRED>
0.00532108

>  <SURFACE_TENSION_DYN/CM_TEST_PRED>
-

>  <THERMAL_CONDUCTIVITY_MW/(M*K)_TEST_PRED>
108.581

>  <TETRAHYMENA_PYRIFORMIS_IGC50_MOL/L_TEST_PRED>
6.97E-06

>  <VISCOSITY_CP_CP_TEST_PRED>
3.22107

>  <VAPOR_PRESSURE_MMHG_TEST_PRED>
0.00555904

>  <WATER_SOLUBILITY_MOL/L_TEST_PRED>
5.07E-06

>  <ATMOSPHERIC_HYDROXYLATION_RATE_(AOH)_CM3/MOLECULE*SEC_OPERA_PRED>
2.25E-13

>  <BIOCONCENTRATION_FACTOR_OPERA_PRED>
5620.75

>  <BIODEGRADATION_HALF_LIFE_DAYS_DAYS_OPERA_PRED>
6.16855

>  <BOILING_POINT_DEGC_OPERA_PRED>
277.032

>  <HENRYS_LAW_ATM-M3/MOLE_OPERA_PRED>
0.00070365

>  <OPERA_KM_DAYS_OPERA_PRED>
73.9857

>  <OCTANOL_AIR_PARTITION_COEFF_LOGKOA_OPERA_PRED>
6.48809

>  <SOIL_ADSORPTION_COEFFICIENT_KOC_L/KG_OPERA_PRED>
3177.29

>  <OCTANOL_WATER_PARTITION_LOGP_OPERA_PRED>
5.17409

>  <MELTING_POINT_DEGC_OPERA_PRED>
86.0923

>  <VAPOR_PRESSURE_MMHG_OPERA_PRED>
0.00101434

>  <WATER_SOLUBILITY_MOL/L_OPERA_PRED>
3.00E-06

>  <Shape Index>
0.54545

>  <Molecular Flexibility>
0

>  <Molecular Complexity>
0.68024

>  <Electronegative Atoms>
5

>  <Stereo Centers>
0

>  <Rotatable Bonds>
0

>  <Rings Closures>
1

>  <Aromatic Rings>
1

>  <Aromatic Atoms>
6

>  <Amides>
0

>  <Amines>
0

>  <Aromatic Nitrogens>
0

>  <Shape Index 2>
0.54545

>  <Molecular Flexibility 2>
0

>  <Molecular Complexity 2>
0.68024

>  <Non-C/H Atoms>
5

>  <Electronegative Atoms 2>
5

>  <Stereo Centers 2>
0

>  <Rotatable Bonds 2>
0

>  <Rings Closures 2>
1

>  <Aromatic Rings 2>
1

>  <Aromatic Atoms 2>
6

>  <sp3-Atoms>
0

>  <Amides 2>
0

>  <Amines 2>
0

>  <Aromatic Nitrogens 2>
0

>  <Basic Nitrogens>
0

$$$$
Hexachlorobenzene
Actelion Java MolfileCreator 2.0

  0  0  0  0  0  0              0 V3000
M  V30 BEGIN CTAB
M  V30 COUNTS 12 12 0 0 0
M  V30 BEGIN ATOM
M  V30 1 Cl 0.0 0.0 0.0 0
M  V30 2 C -1.3102 -0.7318 0.0 0
M  V30 3 C -2.6205 0.0236 0.0 0
M  V30 4 C -1.322 -2.2192 0.0 0
M  V30 5 Cl -2.6323 1.5345 0.0 0
M  V30 6 C -3.9308 -0.7082 0.0 0
M  V30 7 Cl -0.0354 -2.9628 0.0 0
M  V30 8 C -2.6323 -2.951 0.0 0
M  V30 9 Cl -5.2411 0.0472 0.0 0
M  V30 10 C -3.9426 -2.1956 0.0 0
M  V30 11 Cl -2.6441 -4.4384 0.0 0
M  V30 12 Cl -5.2529 -2.9274 0.0 0
M  V30 END ATOM
M  V30 BEGIN BOND
M  V30 1 1 1 2
M  V30 2 2 2 3
M  V30 3 1 2 4
M  V30 4 1 3 5
M  V30 5 1 3 6
M  V30 6 1 4 7
M  V30 7 2 4 8
M  V30 8 1 6 9
M  V30 9 2 6 10
M  V30 10 1 8 11
M  V30 11 1 10 12
M  V30 12 1 8 10
M  V30 END BOND
M  V30 END CTAB
M  END
>  <Molecule Name>
Hexachlorobenzene

>  <Order (spectra)>
51

>  <NAME>
Hexachlorobenzene

>  <Molecular Formula>
C6Cl6

>  <Monoisotopic Mass>
281.813112

>  <SMILES>
ClC1=C(Cl)C(Cl)=C(Cl)C(Cl)=C1Cl

>  <InChI>
InChI=1S/C6Cl6/c7-1-2(8)4(10)6(12)5(11)3(1)9

>  <InChIKey>
CKAPSXZOOQJIBF-UHFFFAOYSA-N

>  <Kingdom>
Organic compounds

>  <Superclass>
Benzenoids

>  <Class>
Benzene and substituted derivatives

>  <Subclass>
Halobenzenes

>  <Parent Level 1>
Chlorobenzenes

>  <Parent Level 2>


>  <Parent Level 3>


>  <cLogP>
5.2956

>  <cLogS>
-6.032

>  <Druglikeness>
-2.0851

>  <NP-class probability>
0.79

>  <SmilesFragFp 3>


>  <MS_READY_SMILES>
ClC1=C(Cl)C(Cl)=C(Cl)C(Cl)=C1Cl

>  <MS_READY_InChI>
InChI=1S/C6Cl6/c7-1-2(8)4(10)6(12)5(11)3(1)9

>  <QSAR_READY_SMILES>
ClC1=C(Cl)C(Cl)=C(Cl)C(Cl)=C1Cl

>  <QSAR_READY_InChI>
InChI=1S/C6Cl6/c7-1-2(8)4(10)6(12)5(11)3(1)9

>  <DTXSID>
DTXSID2020682

>  <DTXCID>
DTXCID80682

>  <CASRN>
118-74-1

>  <EXPOCAST_MEDIAN_EXPOSURE_PREDICTION_MG/KG-BW/DAY>
7.17E-09

>  <BIOCONCENTRATION_FACTOR_TEST_PRED>
8375.29

>  <BOILING_POINT_DEGC_TEST_PRED>
293.365

>  <48HR_DAPHNIA_LC50_MOL/L_TEST_PRED>
1.58E-06

>  <DENSITY_G/CM^3_TEST_PRED>
1.752

>  <DEVTOX_TEST_PRED>
0.154

>  <96HR_FATHEAD_MINNOW_MOL/L_TEST_PRED>
4.93E-07

>  <FLASH_POINT_DEGC_TEST_PRED>
133.485

>  <MELTING_POINT_DEGC_TEST_PRED>
156.061

>  <AMES_MUTAGENICITY_TEST_PRED>
-0.071

>  <ORAL_RAT_LD50_MOL/KG_TEST_PRED>
0.00610942

>  <SURFACE_TENSION_DYN/CM_TEST_PRED>
-

>  <THERMAL_CONDUCTIVITY_MW/(M*K)_TEST_PRED>
105.984

>  <TETRAHYMENA_PYRIFORMIS_IGC50_MOL/L_TEST_PRED>
3.81E-06

>  <VISCOSITY_CP_CP_TEST_PRED>
2.47172

>  <VAPOR_PRESSURE_MMHG_TEST_PRED>
0.000948418

>  <WATER_SOLUBILITY_MOL/L_TEST_PRED>
5.30E-07

>  <ATMOSPHERIC_HYDROXYLATION_RATE_(AOH)_CM3/MOLECULE*SEC_OPERA_PRED>
2.71E-14

>  <BIOCONCENTRATION_FACTOR_OPERA_PRED>
21310.6

>  <BIODEGRADATION_HALF_LIFE_DAYS_DAYS_OPERA_PRED>
17.7255

>  <BOILING_POINT_DEGC_OPERA_PRED>
324.882

>  <HENRYS_LAW_ATM-M3/MOLE_OPERA_PRED>
0.00169294

>  <OPERA_KM_DAYS_OPERA_PRED>
274.991

>  <OCTANOL_AIR_PARTITION_COEFF_LOGKOA_OPERA_PRED>
7.37397

>  <SOIL_ADSORPTION_COEFFICIENT_KOC_L/KG_OPERA_PRED>
5505.73

>  <OCTANOL_WATER_PARTITION_LOGP_OPERA_PRED>
5.72859

>  <MELTING_POINT_DEGC_OPERA_PRED>
231.564

>  <VAPOR_PRESSURE_MMHG_OPERA_PRED>
1.82E-05

>  <WATER_SOLUBILITY_MOL/L_OPERA_PRED>
2.11E-08

>  <Shape Index>
0.5

>  <Molecular Flexibility>
0

>  <Molecular Complexity>
0.6452

>  <Electronegative Atoms>
6

>  <Stereo Centers>
0

>  <Rotatable Bonds>
0

>  <Rings Closures>
1

>  <Aromatic Rings>
1

>  <Aromatic Atoms>
6

>  <Amides>
0

>  <Amines>
0

>  <Aromatic Nitrogens>
0

>  <Shape Index 2>
0.5

>  <Molecular Flexibility 2>
0

>  <Molecular Complexity 2>
0.6452

>  <Non-C/H Atoms>
6

>  <Electronegative Atoms 2>
6

>  <Stereo Centers 2>
0

>  <Rotatable Bonds 2>
0

>  <Rings Closures 2>
1

>  <Aromatic Rings 2>
1

>  <Aromatic Atoms 2>
6

>  <sp3-Atoms>
0

>  <Amides 2>
0

>  <Amines 2>
0

>  <Aromatic Nitrogens 2>
0

>  <Basic Nitrogens>
0

$$$$
2,4'-Dichlorodiphenyldichloroethylene
Actelion Java MolfileCreator 2.0

  0  0  0  0  0  0              0 V3000
M  V30 BEGIN CTAB
M  V30 COUNTS 18 19 0 0 0
M  V30 BEGIN ATOM
M  V30 1 Cl 0.0 0.0 0.0 0
M  V30 2 C 1.2935 -0.7357 0.0 0
M  V30 3 C 1.2816 -2.231 0.0 0
M  V30 4 C 2.5871 0.0237 0.0 0
M  V30 5 C -0.0356 -2.9668 0.0 0
M  V30 6 C 2.5752 -2.9668 0.0 0
M  V30 7 C 3.8806 -0.712 0.0 0
M  V30 8 C -0.0474 -4.4621 0.0 0
M  V30 9 C -1.3528 -2.2073 0.0 0
M  V30 10 C 3.8688 -2.2073 0.0 0
M  V30 11 C -1.3647 -5.1979 0.0 0
M  V30 12 C 1.246 -5.1979 0.0 0
M  V30 13 Cl -1.3647 -0.6883 0.0 0
M  V30 14 Cl -2.6701 -2.9431 0.0 0
M  V30 15 C -1.3766 -6.6932 0.0 0
M  V30 16 C 1.2342 -6.6932 0.0 0
M  V30 17 C -0.083 -7.4409 0.0 0
M  V30 18 Cl -0.0949 -8.9362 0.0 0
M  V30 END ATOM
M  V30 BEGIN BOND
M  V30 1 1 1 2
M  V30 2 2 2 3
M  V30 3 1 2 4
M  V30 4 1 3 5
M  V30 5 1 3 6
M  V30 6 2 4 7
M  V30 7 1 5 8
M  V30 8 2 5 9
M  V30 9 2 6 10
M  V30 10 2 8 11
M  V30 11 1 8 12
M  V30 12 1 9 13
M  V30 13 1 9 14
M  V30 14 1 11 15
M  V30 15 2 12 16
M  V30 16 2 15 17
M  V30 17 1 17 18
M  V30 18 1 7 10
M  V30 19 1 16 17
M  V30 END BOND
M  V30 END CTAB
M  END
>  <Molecule Name>
2,4'-Dichlorodiphenyldichloroethylene

>  <Order (spectra)>
52

>  <NAME>
2,4'-Dichlorodiphenyldichloroethylene

>  <Molecular Formula>
C14H8Cl4

>  <Monoisotopic Mass>
315.938008

>  <SMILES>
ClC(Cl)=C(C1=CC=C(Cl)C=C1)C1=C(Cl)C=CC=C1

>  <InChI>
InChI=1S/C14H8Cl4/c15-10-7-5-9(6-8-10)13(14(17)18)11-3-1-2-4-12(11)16/h1-8H

>  <InChIKey>
ZDYJWDIWLRZXDB-UHFFFAOYSA-N

>  <Kingdom>
Organic compounds

>  <Superclass>
Benzenoids

>  <Class>
Benzene and substituted derivatives

>  <Subclass>
Diphenylmethanes

>  <Parent Level 1>
Diphenylmethanes

>  <Parent Level 2>


>  <Parent Level 3>


>  <cLogP>
5.5325

>  <cLogS>
-6.138

>  <Druglikeness>
-0.81083

>  <NP-class probability>
0.15

>  <SmilesFragFp 3>


>  <MS_READY_SMILES>
ClC(Cl)=C(C1=CC=C(Cl)C=C1)C1=C(Cl)C=CC=C1

>  <MS_READY_InChI>
InChI=1S/C14H8Cl4/c15-10-7-5-9(6-8-10)13(14(17)18)11-3-1-2-4-12(11)16/h1-8H

>  <QSAR_READY_SMILES>
ClC(Cl)=C(C1=CC=C(Cl)C=C1)C1=C(Cl)C=CC=C1

>  <QSAR_READY_InChI>
InChI=1S/C14H8Cl4/c15-10-7-5-9(6-8-10)13(14(17)18)11-3-1-2-4-12(11)16/h1-8H

>  <DTXSID>
DTXSID4022313

>  <DTXCID>
DTXCID302313

>  <CASRN>
3424-82-6

>  <EXPOCAST_MEDIAN_EXPOSURE_PREDICTION_MG/KG-BW/DAY>
1.02E-07

>  <BIOCONCENTRATION_FACTOR_TEST_PRED>
16557.7

>  <BOILING_POINT_DEGC_TEST_PRED>
364.067

>  <48HR_DAPHNIA_LC50_MOL/L_TEST_PRED>
7.52E-08

>  <DENSITY_G/CM^3_TEST_PRED>
1.448

>  <DEVTOX_TEST_PRED>
0.477

>  <96HR_FATHEAD_MINNOW_MOL/L_TEST_PRED>
2.82E-07

>  <FLASH_POINT_DEGC_TEST_PRED>
188.514

>  <MELTING_POINT_DEGC_TEST_PRED>
94.49

>  <AMES_MUTAGENICITY_TEST_PRED>
-0.311

>  <ORAL_RAT_LD50_MOL/KG_TEST_PRED>
0.00102802

>  <SURFACE_TENSION_DYN/CM_TEST_PRED>
-

>  <THERMAL_CONDUCTIVITY_MW/(M*K)_TEST_PRED>
-

>  <TETRAHYMENA_PYRIFORMIS_IGC50_MOL/L_TEST_PRED>
2.13E-06

>  <VISCOSITY_CP_CP_TEST_PRED>
15.8125

>  <VAPOR_PRESSURE_MMHG_TEST_PRED>
4.32E-06

>  <WATER_SOLUBILITY_MOL/L_TEST_PRED>
2.37E-07

>  <ATMOSPHERIC_HYDROXYLATION_RATE_(AOH)_CM3/MOLECULE*SEC_OPERA_PRED>
7.05E-13

>  <BIOCONCENTRATION_FACTOR_OPERA_PRED>
11763.8

>  <BIODEGRADATION_HALF_LIFE_DAYS_DAYS_OPERA_PRED>
16.3993

>  <BOILING_POINT_DEGC_OPERA_PRED>
336.122

>  <HENRYS_LAW_ATM-M3/MOLE_OPERA_PRED>
3.37E-05

>  <OPERA_KM_DAYS_OPERA_PRED>
89.2863

>  <OCTANOL_AIR_PARTITION_COEFF_LOGKOA_OPERA_PRED>
9.44218

>  <SOIL_ADSORPTION_COEFFICIENT_KOC_L/KG_OPERA_PRED>
307057

>  <OCTANOL_WATER_PARTITION_LOGP_OPERA_PRED>
6.22675

>  <MELTING_POINT_DEGC_OPERA_PRED>
89.9398

>  <VAPOR_PRESSURE_MMHG_OPERA_PRED>
6.16E-06

>  <WATER_SOLUBILITY_MOL/L_OPERA_PRED>
4.33E-07

>  <Shape Index>
0.55556

>  <Molecular Flexibility>
0.45482

>  <Molecular Complexity>
0.74264

>  <Electronegative Atoms>
4

>  <Stereo Centers>
0

>  <Rotatable Bonds>
2

>  <Rings Closures>
2

>  <Aromatic Rings>
2

>  <Aromatic Atoms>
12

>  <Amides>
0

>  <Amines>
0

>  <Aromatic Nitrogens>
0

>  <Shape Index 2>
0.55556

>  <Molecular Flexibility 2>
0.45482

>  <Molecular Complexity 2>
0.74264

>  <Non-C/H Atoms>
4

>  <Electronegative Atoms 2>
4

>  <Stereo Centers 2>
0

>  <Rotatable Bonds 2>
2

>  <Rings Closures 2>
2

>  <Aromatic Rings 2>
2

>  <Aromatic Atoms 2>
12

>  <sp3-Atoms>
0

>  <Amides 2>
0

>  <Amines 2>
0

>  <Aromatic Nitrogens 2>
0

>  <Basic Nitrogens>
0

$$$$
2,4'-Dichlorodiphenyldichloroethane
Actelion Java MolfileCreator 2.0

  0  0  0  0  0  0              0 V3000
M  V30 BEGIN CTAB
M  V30 COUNTS 18 19 0 0 0
M  V30 BEGIN ATOM
M  V30 1 Cl 0.0 0.0 0.0 0
M  V30 2 C 1.2935 -0.7357 0.0 0
M  V30 3 C 1.2816 -2.231 0.0 0
M  V30 4 C 2.5871 0.0237 0.0 0
M  V30 5 C 2.5752 -2.9668 0.0 0
M  V30 6 C -0.0356 -2.9668 0.0 0 CFG=2
M  V30 7 C 3.8806 -0.712 0.0 0
M  V30 8 C 3.8688 -2.2073 0.0 0
M  V30 9 C -0.0474 -4.4621 0.0 0
M  V30 10 C -1.3528 -2.2073 0.0 0
M  V30 11 C -1.3647 -5.1979 0.0 0
M  V30 12 C 1.246 -5.1979 0.0 0
M  V30 13 Cl -1.3647 -0.6883 0.0 0
M  V30 14 Cl -2.6701 -2.9431 0.0 0
M  V30 15 C -1.3766 -6.6932 0.0 0
M  V30 16 C 1.2342 -6.6932 0.0 0
M  V30 17 C -0.083 -7.4409 0.0 0
M  V30 18 Cl -0.0949 -8.9362 0.0 0
M  V30 END ATOM
M  V30 BEGIN BOND
M  V30 1 1 1 2
M  V30 2 2 2 3
M  V30 3 1 2 4
M  V30 4 1 3 5
M  V30 5 1 6 3 CFG=3
M  V30 6 2 4 7
M  V30 7 2 5 8
M  V30 8 1 6 9
M  V30 9 1 6 10
M  V30 10 2 9 11
M  V30 11 1 9 12
M  V30 12 1 10 13
M  V30 13 1 10 14
M  V30 14 1 11 15
M  V30 15 2 12 16
M  V30 16 2 15 17
M  V30 17 1 17 18
M  V30 18 1 7 8
M  V30 19 1 16 17
M  V30 END BOND
M  V30 BEGIN COLLECTION
M  V30 MDLV30/STERAC1 ATOMS=(1 6)
M  V30 END COLLECTION
M  V30 END CTAB
M  END
>  <Molecule Name>
2,4'-Dichlorodiphenyldichloroethane

>  <Order (spectra)>
53

>  <NAME>
2,4'-Dichlorodiphenyldichloroethane

>  <Molecular Formula>
C14H10Cl4

>  <Monoisotopic Mass>
317.953658

>  <SMILES>
ClC(Cl)C(C1=CC=C(Cl)C=C1)C1=C(Cl)C=CC=C1

>  <InChI>
InChI=1S/C14H10Cl4/c15-10-7-5-9(6-8-10)13(14(17)18)11-3-1-2-4-12(11)16/h1-8,13-14H/t13-/m0/s1

>  <InChIKey>
JWBOIMRXGHLCPP-UHFFFAOYSA-N

>  <Kingdom>
Organic compounds

>  <Superclass>
Benzenoids

>  <Class>
Benzene and substituted derivatives

>  <Subclass>
Diphenylmethanes

>  <Parent Level 1>
Diphenylmethanes

>  <Parent Level 2>


>  <Parent Level 3>


>  <cLogP>
5.7902

>  <cLogS>
-5.438

>  <Druglikeness>
-1.3066

>  <NP-class probability>
0.17

>  <SmilesFragFp 3>


>  <MS_READY_SMILES>
ClC(Cl)C(C1=CC=C(Cl)C=C1)C1=C(Cl)C=CC=C1

>  <MS_READY_InChI>
InChI=1S/C14H10Cl4/c15-10-7-5-9(6-8-10)13(14(17)18)11-3-1-2-4-12(11)16/h1-8,13-14H/t13-/m0/s1

>  <QSAR_READY_SMILES>
ClC(Cl)C(C1=CC=C(Cl)C=C1)C1=C(Cl)C=CC=C1

>  <QSAR_READY_InChI>
InChI=1S/C14H10Cl4/c15-10-7-5-9(6-8-10)13(14(17)18)11-3-1-2-4-12(11)16/h1-8,13-14H/t13-/m0/s1

>  <DTXSID>
DTXSID9020372

>  <DTXCID>
DTXCID30372

>  <CASRN>
53-19-0

>  <EXPOCAST_MEDIAN_EXPOSURE_PREDICTION_MG/KG-BW/DAY>
7.82E-08

>  <BIOCONCENTRATION_FACTOR_TEST_PRED>
5345.64

>  <BOILING_POINT_DEGC_TEST_PRED>
355.619

>  <48HR_DAPHNIA_LC50_MOL/L_TEST_PRED>
1.19E-07

>  <DENSITY_G/CM^3_TEST_PRED>
1.365

>  <DEVTOX_TEST_PRED>
0.432

>  <96HR_FATHEAD_MINNOW_MOL/L_TEST_PRED>
4.99E-07

>  <FLASH_POINT_DEGC_TEST_PRED>
179.236

>  <MELTING_POINT_DEGC_TEST_PRED>
74.692

>  <AMES_MUTAGENICITY_TEST_PRED>
0.383

>  <ORAL_RAT_LD50_MOL/KG_TEST_PRED>
0.00153109

>  <SURFACE_TENSION_DYN/CM_TEST_PRED>
44.538

>  <THERMAL_CONDUCTIVITY_MW/(M*K)_TEST_PRED>
124.493

>  <TETRAHYMENA_PYRIFORMIS_IGC50_MOL/L_TEST_PRED>
1.18E-06

>  <VISCOSITY_CP_CP_TEST_PRED>
20.1837

>  <VAPOR_PRESSURE_MMHG_TEST_PRED>
5.08E-06

>  <WATER_SOLUBILITY_MOL/L_TEST_PRED>
3.85E-07

>  <ATMOSPHERIC_HYDROXYLATION_RATE_(AOH)_CM3/MOLECULE*SEC_OPERA_PRED>
7.05E-13

>  <BIOCONCENTRATION_FACTOR_OPERA_PRED>
8049.91

>  <BIODEGRADATION_HALF_LIFE_DAYS_DAYS_OPERA_PRED>
11.367

>  <BOILING_POINT_DEGC_OPERA_PRED>
350.046

>  <HENRYS_LAW_ATM-M3/MOLE_OPERA_PRED>
1.58E-05

>  <OPERA_KM_DAYS_OPERA_PRED>
44.7653

>  <OCTANOL_AIR_PARTITION_COEFF_LOGKOA_OPERA_PRED>
10.0191

>  <SOIL_ADSORPTION_COEFFICIENT_KOC_L/KG_OPERA_PRED>
74264

>  <OCTANOL_WATER_PARTITION_LOGP_OPERA_PRED>
6.76953

>  <MELTING_POINT_DEGC_OPERA_PRED>
81.1552

>  <VAPOR_PRESSURE_MMHG_OPERA_PRED>
1.93E-06

>  <WATER_SOLUBILITY_MOL/L_OPERA_PRED>
3.09E-07

>  <Shape Index>
0.55556

>  <Molecular Flexibility>
0.38778

>  <Molecular Complexity>
0.70898

>  <Electronegative Atoms>
4

>  <Stereo Centers>
1

>  <Rotatable Bonds>
3

>  <Rings Closures>
2

>  <Aromatic Rings>
2

>  <Aromatic Atoms>
12

>  <Amides>
0

>  <Amines>
0

>  <Aromatic Nitrogens>
0

>  <Shape Index 2>
0.55556

>  <Molecular Flexibility 2>
0.38778

>  <Molecular Complexity 2>
0.70898

>  <Non-C/H Atoms>
4

>  <Electronegative Atoms 2>
4

>  <Stereo Centers 2>
1

>  <Rotatable Bonds 2>
3

>  <Rings Closures 2>
2

>  <Aromatic Rings 2>
2

>  <Aromatic Atoms 2>
12

>  <sp3-Atoms>
2

>  <Amides 2>
0

>  <Amines 2>
0

>  <Aromatic Nitrogens 2>
0

>  <Basic Nitrogens>
0

$$$$
2,4'-Dichlorodiphenyltrichloroethane
Actelion Java MolfileCreator 2.0

  0  0  0  0  0  0              0 V3000
M  V30 BEGIN CTAB
M  V30 COUNTS 19 20 0 0 0
M  V30 BEGIN ATOM
M  V30 1 Cl 0.0 0.0 0.0 0
M  V30 2 C -0.0118 -1.4881 0.0 0
M  V30 3 C -1.3227 -2.2203 0.0 0
M  V30 4 C 1.2755 -2.2203 0.0 0
M  V30 5 C -1.3345 -3.7085 0.0 0
M  V30 6 C -2.6337 -1.4645 0.0 0 CFG=2
M  V30 7 C 1.2637 -3.7085 0.0 0
M  V30 8 C -0.0472 -4.4407 0.0 0
M  V30 9 C -2.6455 0.0472 0.0 0
M  V30 10 C -3.9447 -2.1967 0.0 0
M  V30 11 C -1.3582 0.8031 0.0 0
M  V30 12 C -3.9565 0.8031 0.0 0
M  V30 13 Cl -3.2124 -3.4841 0.0 0
M  V30 14 Cl -5.2556 -2.929 0.0 0
M  V30 15 Cl -4.7005 -0.8857 0.0 0
M  V30 16 C -1.37 2.3148 0.0 0
M  V30 17 C -3.9683 2.3148 0.0 0
M  V30 18 C -2.6809 3.0707 0.0 0
M  V30 19 Cl -2.6927 4.5824 0.0 0
M  V30 END ATOM
M  V30 BEGIN BOND
M  V30 1 1 1 2
M  V30 2 2 2 3
M  V30 3 1 2 4
M  V30 4 1 3 5
M  V30 5 1 6 3 CFG=1
M  V30 6 2 4 7
M  V30 7 2 5 8
M  V30 8 1 6 9
M  V30 9 1 6 10
M  V30 10 2 9 11
M  V30 11 1 9 12
M  V30 12 1 10 13
M  V30 13 1 10 14
M  V30 14 1 10 15
M  V30 15 1 11 16
M  V30 16 2 12 17
M  V30 17 2 16 18
M  V30 18 1 18 19
M  V30 19 1 7 8
M  V30 20 1 17 18
M  V30 END BOND
M  V30 BEGIN COLLECTION
M  V30 MDLV30/STERAC1 ATOMS=(1 6)
M  V30 END COLLECTION
M  V30 END CTAB
M  END
>  <Molecule Name>
2,4'-Dichlorodiphenyltrichloroethane

>  <Order (spectra)>
54

>  <NAME>
2,4'-Dichlorodiphenyltrichloroethane

>  <Molecular Formula>
C14H9Cl5

>  <Monoisotopic Mass>
351.914685

>  <SMILES>
ClC1=CC=C(C=C1)C(C1=CC=CC=C1Cl)C(Cl)(Cl)Cl

>  <InChI>
InChI=1S/C14H9Cl5/c15-10-7-5-9(6-8-10)13(14(17,18)19)11-3-1-2-4-12(11)16/h1-8,13H/t13-/m0/s1

>  <InChIKey>
CVUGPAFCQJIYDT-UHFFFAOYSA-N

>  <Kingdom>
Organic compounds

>  <Superclass>
Benzenoids

>  <Class>
Benzene and substituted derivatives

>  <Subclass>
Diphenylmethanes

>  <Parent Level 1>
Diphenylmethanes

>  <Parent Level 2>


>  <Parent Level 3>


>  <cLogP>
6.6032

>  <cLogS>
-5.941

>  <Druglikeness>
-1.9081

>  <NP-class probability>
0.14

>  <SmilesFragFp 3>


>  <MS_READY_SMILES>
ClC1=CC=C(C=C1)C(C1=CC=CC=C1Cl)C(Cl)(Cl)Cl

>  <MS_READY_InChI>
InChI=1S/C14H9Cl5/c15-10-7-5-9(6-8-10)13(14(17,18)19)11-3-1-2-4-12(11)16/h1-8,13H/t13-/m0/s1

>  <QSAR_READY_SMILES>
ClC1=CC=C(C=C1)C(C1=CC=CC=C1Cl)C(Cl)(Cl)Cl

>  <QSAR_READY_InChI>
InChI=1S/C14H9Cl5/c15-10-7-5-9(6-8-10)13(14(17,18)19)11-3-1-2-4-12(11)16/h1-8,13H/t13-/m0/s1

>  <DTXSID>
DTXSID6022345

>  <DTXCID>
DTXCID002345

>  <CASRN>
789-02-6

>  <EXPOCAST_MEDIAN_EXPOSURE_PREDICTION_MG/KG-BW/DAY>
6.10E-08

>  <BIOCONCENTRATION_FACTOR_TEST_PRED>
9397.23

>  <BOILING_POINT_DEGC_TEST_PRED>
365.742

>  <48HR_DAPHNIA_LC50_MOL/L_TEST_PRED>
2.73E-08

>  <DENSITY_G/CM^3_TEST_PRED>
1.517

>  <DEVTOX_TEST_PRED>
0.463

>  <96HR_FATHEAD_MINNOW_MOL/L_TEST_PRED>
2.55E-07

>  <FLASH_POINT_DEGC_TEST_PRED>
188.308

>  <MELTING_POINT_DEGC_TEST_PRED>
86.486

>  <AMES_MUTAGENICITY_TEST_PRED>
0.022

>  <ORAL_RAT_LD50_MOL/KG_TEST_PRED>
-

>  <SURFACE_TENSION_DYN/CM_TEST_PRED>
42.978

>  <THERMAL_CONDUCTIVITY_MW/(M*K)_TEST_PRED>
124.974

>  <TETRAHYMENA_PYRIFORMIS_IGC50_MOL/L_TEST_PRED>
1.14E-06

>  <VISCOSITY_CP_CP_TEST_PRED>
10.1158

>  <VAPOR_PRESSURE_MMHG_TEST_PRED>
4.15E-06

>  <WATER_SOLUBILITY_MOL/L_TEST_PRED>
1.24E-07

>  <ATMOSPHERIC_HYDROXYLATION_RATE_(AOH)_CM3/MOLECULE*SEC_OPERA_PRED>
7.04E-13

>  <BIOCONCENTRATION_FACTOR_OPERA_PRED>
14932.3

>  <BIODEGRADATION_HALF_LIFE_DAYS_DAYS_OPERA_PRED>
11.6876

>  <BOILING_POINT_DEGC_OPERA_PRED>
371.487

>  <HENRYS_LAW_ATM-M3/MOLE_OPERA_PRED>
1.43E-05

>  <OPERA_KM_DAYS_OPERA_PRED>
51.3442

>  <OCTANOL_AIR_PARTITION_COEFF_LOGKOA_OPERA_PRED>
9.56752

>  <SOIL_ADSORPTION_COEFFICIENT_KOC_L/KG_OPERA_PRED>
126385

>  <OCTANOL_WATER_PARTITION_LOGP_OPERA_PRED>
6.92326

>  <MELTING_POINT_DEGC_OPERA_PRED>
104.428

>  <VAPOR_PRESSURE_MMHG_OPERA_PRED>
1.34E-06

>  <WATER_SOLUBILITY_MOL/L_OPERA_PRED>
2.14E-07

>  <Shape Index>
0.52632

>  <Molecular Flexibility>
0.37411

>  <Molecular Complexity>
0.7177

>  <Electronegative Atoms>
5

>  <Stereo Centers>
1

>  <Rotatable Bonds>
3

>  <Rings Closures>
2

>  <Aromatic Rings>
2

>  <Aromatic Atoms>
12

>  <Amides>
0

>  <Amines>
0

>  <Aromatic Nitrogens>
0

>  <Shape Index 2>
0.52632

>  <Molecular Flexibility 2>
0.37411

>  <Molecular Complexity 2>
0.7177

>  <Non-C/H Atoms>
5

>  <Electronegative Atoms 2>
5

>  <Stereo Centers 2>
1

>  <Rotatable Bonds 2>
3

>  <Rings Closures 2>
2

>  <Aromatic Rings 2>
2

>  <Aromatic Atoms 2>
12

>  <sp3-Atoms>
2

>  <Amides 2>
0

>  <Amines 2>
0

>  <Aromatic Nitrogens 2>
0

>  <Basic Nitrogens>
0

$$$$
2,4,4'-Trichlorobiphenyl
Actelion Java MolfileCreator 2.0

  0  0  0  0  0  0              0 V3000
M  V30 BEGIN CTAB
M  V30 COUNTS 15 16 0 0 0
M  V30 BEGIN ATOM
M  V30 1 Cl 0.0 0.0 0.0 0
M  V30 2 C -1.3073 -0.7302 0.0 0
M  V30 3 C -2.6146 0.0235 0.0 0
M  V30 4 C -1.319 -2.2141 0.0 0
M  V30 5 C -2.6263 1.531 0.0 0
M  V30 6 C -3.9219 -0.7066 0.0 0
M  V30 7 C -2.6263 -2.9443 0.0 0
M  V30 8 C -1.3426 2.2848 0.0 0
M  V30 9 C -3.9336 2.2848 0.0 0
M  V30 10 C -3.9336 -2.1906 0.0 0
M  V30 11 Cl -2.6381 -4.4283 0.0 0
M  V30 12 C -1.3544 3.7923 0.0 0
M  V30 13 C -3.9454 3.7923 0.0 0
M  V30 14 C -2.6617 4.5579 0.0 0
M  V30 15 Cl -2.6734 6.0654 0.0 0
M  V30 END ATOM
M  V30 BEGIN BOND
M  V30 1 1 1 2
M  V30 2 2 2 3
M  V30 3 1 2 4
M  V30 4 1 3 5
M  V30 5 1 3 6
M  V30 6 2 4 7
M  V30 7 2 5 8
M  V30 8 1 5 9
M  V30 9 2 6 10
M  V30 10 1 7 11
M  V30 11 1 8 12
M  V30 12 2 9 13
M  V30 13 2 12 14
M  V30 14 1 14 15
M  V30 15 1 7 10
M  V30 16 1 13 14
M  V30 END BOND
M  V30 END CTAB
M  END
>  <Molecule Name>
2,4,4'-Trichlorobiphenyl

>  <Order (spectra)>
56

>  <NAME>
2,4,4'-Trichlorobiphenyl

>  <Molecular Formula>
C12H7Cl3

>  <Monoisotopic Mass>
255.961331

>  <SMILES>
ClC1=CC=C(C=C1)C1=C(Cl)C=C(Cl)C=C1

>  <InChI>
InChI=1S/C12H7Cl3/c13-9-3-1-8(2-4-9)11-6-5-10(14)7-12(11)15/h1-7H

>  <InChIKey>
BZTYNSQSZHARAZ-UHFFFAOYSA-N

>  <Kingdom>
Organic compounds

>  <Superclass>
Benzenoids

>  <Class>
Benzene and substituted derivatives

>  <Subclass>
Biphenyls and derivatives

>  <Parent Level 1>
Chlorinated biphenyls

>  <Parent Level 2>
Polychlorinated biphenyls

>  <Parent Level 3>


>  <cLogP>
5.1368

>  <cLogS>
-5.91

>  <Druglikeness>
-1.9661

>  <NP-class probability>
0.01

>  <SmilesFragFp 3>


>  <MS_READY_SMILES>
ClC1=CC=C(C=C1)C1=C(Cl)C=C(Cl)C=C1

>  <MS_READY_InChI>
InChI=1S/C12H7Cl3/c13-9-3-1-8(2-4-9)11-6-5-10(14)7-12(11)15/h1-7H

>  <QSAR_READY_SMILES>
ClC1=CC=C(C=C1)C1=C(Cl)C=C(Cl)C=C1

>  <QSAR_READY_InChI>
InChI=1S/C12H7Cl3/c13-9-3-1-8(2-4-9)11-6-5-10(14)7-12(11)15/h1-7H

>  <DTXSID>
DTXSID2038310

>  <DTXCID>
DTXCID0018310

>  <CASRN>
7012-37-5

>  <EXPOCAST_MEDIAN_EXPOSURE_PREDICTION_MG/KG-BW/DAY>
7.91E-14

>  <BIOCONCENTRATION_FACTOR_TEST_PRED>
9817.48

>  <BOILING_POINT_DEGC_TEST_PRED>
324.481

>  <48HR_DAPHNIA_LC50_MOL/L_TEST_PRED>
3.24E-07

>  <DENSITY_G/CM^3_TEST_PRED>
1.337

>  <DEVTOX_TEST_PRED>
0.331

>  <96HR_FATHEAD_MINNOW_MOL/L_TEST_PRED>
8.04E-07

>  <FLASH_POINT_DEGC_TEST_PRED>
149.264

>  <MELTING_POINT_DEGC_TEST_PRED>
83.88

>  <AMES_MUTAGENICITY_TEST_PRED>
-0.027

>  <ORAL_RAT_LD50_MOL/KG_TEST_PRED>
0.00130017

>  <SURFACE_TENSION_DYN/CM_TEST_PRED>
-

>  <THERMAL_CONDUCTIVITY_MW/(M*K)_TEST_PRED>
125.121

>  <TETRAHYMENA_PYRIFORMIS_IGC50_MOL/L_TEST_PRED>
1.99E-06

>  <VISCOSITY_CP_CP_TEST_PRED>
-

>  <VAPOR_PRESSURE_MMHG_TEST_PRED>
0.000299916

>  <WATER_SOLUBILITY_MOL/L_TEST_PRED>
7.48E-07

>  <ATMOSPHERIC_HYDROXYLATION_RATE_(AOH)_CM3/MOLECULE*SEC_OPERA_PRED>
1.10E-12

>  <BIOCONCENTRATION_FACTOR_OPERA_PRED>
15408

>  <BIODEGRADATION_HALF_LIFE_DAYS_DAYS_OPERA_PRED>
18.8578

>  <BOILING_POINT_DEGC_OPERA_PRED>
343.69

>  <HENRYS_LAW_ATM-M3/MOLE_OPERA_PRED>
0.000199754

>  <OPERA_KM_DAYS_OPERA_PRED>
75.8688

>  <OCTANOL_AIR_PARTITION_COEFF_LOGKOA_OPERA_PRED>
7.78147

>  <SOIL_ADSORPTION_COEFFICIENT_KOC_L/KG_OPERA_PRED>
42659.4

>  <OCTANOL_WATER_PARTITION_LOGP_OPERA_PRED>
5.62206

>  <MELTING_POINT_DEGC_OPERA_PRED>
83.0232

>  <VAPOR_PRESSURE_MMHG_OPERA_PRED>
0.000130065

>  <WATER_SOLUBILITY_MOL/L_OPERA_PRED>
6.95E-07

>  <Shape Index>
0.66667

>  <Molecular Flexibility>
0.38377

>  <Molecular Complexity>
0.65645

>  <Electronegative Atoms>
3

>  <Stereo Centers>
0

>  <Rotatable Bonds>
1

>  <Rings Closures>
2

>  <Aromatic Rings>
2

>  <Aromatic Atoms>
12

>  <Amides>
0

>  <Amines>
0

>  <Aromatic Nitrogens>
0

>  <Shape Index 2>
0.66667

>  <Molecular Flexibility 2>
0.38377

>  <Molecular Complexity 2>
0.65645

>  <Non-C/H Atoms>
3

>  <Electronegative Atoms 2>
3

>  <Stereo Centers 2>
0

>  <Rotatable Bonds 2>
1

>  <Rings Closures 2>
2

>  <Aromatic Rings 2>
2

>  <Aromatic Atoms 2>
12

>  <sp3-Atoms>
0

>  <Amides 2>
0

>  <Amines 2>
0

>  <Aromatic Nitrogens 2>
0

>  <Basic Nitrogens>
0

$$$$
2,2',4,5,5'-Pentachlorobiphenyl
Actelion Java MolfileCreator 2.0

  0  0  0  0  0  0              0 V3000
M  V30 BEGIN CTAB
M  V30 COUNTS 17 18 0 0 0
M  V30 BEGIN ATOM
M  V30 1 Cl 0.0 0.0 0.0 0
M  V30 2 C -1.3102 -0.7318 0.0 0
M  V30 3 C -2.6204 0.0236 0.0 0
M  V30 4 C -1.322 -2.2191 0.0 0
M  V30 5 Cl -2.6322 1.5344 0.0 0
M  V30 6 C -3.9306 -0.7082 0.0 0
M  V30 7 C -2.6322 -2.9509 0.0 0
M  V30 8 C -3.9424 -2.1955 0.0 0
M  V30 9 Cl -2.644 -4.4382 0.0 0
M  V30 10 C -5.2526 -2.9273 0.0 0
M  V30 11 C -6.5629 -2.1719 0.0 0
M  V30 12 C -5.2644 -4.4146 0.0 0
M  V30 13 Cl -6.5747 -0.661 0.0 0
M  V30 14 C -7.8731 -2.9037 0.0 0
M  V30 15 C -6.5747 -5.1464 0.0 0
M  V30 16 C -7.8849 -4.391 0.0 0
M  V30 17 Cl -6.5865 -6.6337 0.0 0
M  V30 END ATOM
M  V30 BEGIN BOND
M  V30 1 1 1 2
M  V30 2 2 2 3
M  V30 3 1 2 4
M  V30 4 1 3 5
M  V30 5 1 3 6
M  V30 6 2 4 7
M  V30 7 2 6 8
M  V30 8 1 7 9
M  V30 9 1 8 10
M  V30 10 2 10 11
M  V30 11 1 10 12
M  V30 12 1 11 13
M  V30 13 1 11 14
M  V30 14 2 12 15
M  V30 15 2 14 16
M  V30 16 1 15 17
M  V30 17 1 7 8
M  V30 18 1 15 16
M  V30 END BOND
M  V30 END CTAB
M  END
>  <Molecule Name>
2,2',4,5,5'-Pentachlorobiphenyl

>  <Order (spectra)>
57

>  <NAME>
2,2',4,5,5'-Pentachlorobiphenyl

>  <Molecular Formula>
C12H5Cl5

>  <Monoisotopic Mass>
323.883385

>  <SMILES>
ClC1=CC(=C(Cl)C=C1)C1=C(Cl)C=C(Cl)C(Cl)=C1

>  <InChI>
InChI=1S/C12H5Cl5/c13-6-1-2-9(14)7(3-6)8-4-11(16)12(17)5-10(8)15/h1-5H

>  <InChIKey>
LAHWLEDBADHJGA-UHFFFAOYSA-N

>  <Kingdom>
Organic compounds

>  <Superclass>
Benzenoids

>  <Class>
Benzene and substituted derivatives

>  <Subclass>
Biphenyls and derivatives

>  <Parent Level 1>
Chlorinated biphenyls

>  <Parent Level 2>
Polychlorinated biphenyls

>  <Parent Level 3>


>  <cLogP>
6.3488

>  <cLogS>
-7.382

>  <Druglikeness>
-1.9661

>  <NP-class probability>
0.01

>  <SmilesFragFp 3>


>  <MS_READY_SMILES>
ClC1=CC(=C(Cl)C=C1)C1=C(Cl)C=C(Cl)C(Cl)=C1

>  <MS_READY_InChI>
InChI=1S/C12H5Cl5/c13-6-1-2-9(14)7(3-6)8-4-11(16)12(17)5-10(8)15/h1-5H

>  <QSAR_READY_SMILES>
ClC1=CC(=C(Cl)C=C1)C1=C(Cl)C=C(Cl)C(Cl)=C1

>  <QSAR_READY_InChI>
InChI=1S/C12H5Cl5/c13-6-1-2-9(14)7(3-6)8-4-11(16)12(17)5-10(8)15/h1-5H

>  <DTXSID>
DTXSID8038304

>  <DTXCID>
DTXCID6018304

>  <CASRN>
37680-73-2

>  <EXPOCAST_MEDIAN_EXPOSURE_PREDICTION_MG/KG-BW/DAY>
1.66E-14

>  <BIOCONCENTRATION_FACTOR_TEST_PRED>
35156

>  <BOILING_POINT_DEGC_TEST_PRED>
374.62

>  <48HR_DAPHNIA_LC50_MOL/L_TEST_PRED>
1.76E-08

>  <DENSITY_G/CM^3_TEST_PRED>
1.517

>  <DEVTOX_TEST_PRED>
0.404

>  <96HR_FATHEAD_MINNOW_MOL/L_TEST_PRED>
6.01E-08

>  <FLASH_POINT_DEGC_TEST_PRED>
183.525

>  <MELTING_POINT_DEGC_TEST_PRED>
103.24

>  <AMES_MUTAGENICITY_TEST_PRED>
-0.027

>  <ORAL_RAT_LD50_MOL/KG_TEST_PRED>
0.000281838

>  <SURFACE_TENSION_DYN/CM_TEST_PRED>
-

>  <THERMAL_CONDUCTIVITY_MW/(M*K)_TEST_PRED>
120.414

>  <TETRAHYMENA_PYRIFORMIS_IGC50_MOL/L_TEST_PRED>
2.90E-07

>  <VISCOSITY_CP_CP_TEST_PRED>
-

>  <VAPOR_PRESSURE_MMHG_TEST_PRED>
1.16E-05

>  <WATER_SOLUBILITY_MOL/L_TEST_PRED>
5.36E-08

>  <ATMOSPHERIC_HYDROXYLATION_RATE_(AOH)_CM3/MOLECULE*SEC_OPERA_PRED>
5.81E-13

>  <BIOCONCENTRATION_FACTOR_OPERA_PRED>
291842

>  <BIODEGRADATION_HALF_LIFE_DAYS_DAYS_OPERA_PRED>
15.531

>  <BOILING_POINT_DEGC_OPERA_PRED>
365.465

>  <HENRYS_LAW_ATM-M3/MOLE_OPERA_PRED>
0.00008979

>  <OPERA_KM_DAYS_OPERA_PRED>
288.84

>  <OCTANOL_AIR_PARTITION_COEFF_LOGKOA_OPERA_PRED>
8.96003

>  <SOIL_ADSORPTION_COEFFICIENT_KOC_L/KG_OPERA_PRED>
165676

>  <OCTANOL_WATER_PARTITION_LOGP_OPERA_PRED>
6.10305

>  <MELTING_POINT_DEGC_OPERA_PRED>
94.4364

>  <VAPOR_PRESSURE_MMHG_OPERA_PRED>
1.21E-05

>  <WATER_SOLUBILITY_MOL/L_OPERA_PRED>
4.51E-08

>  <Shape Index>
0.52941

>  <Molecular Flexibility>
0.33602

>  <Molecular Complexity>
0.76113

>  <Electronegative Atoms>
5

>  <Stereo Centers>
0

>  <Rotatable Bonds>
1

>  <Rings Closures>
2

>  <Aromatic Rings>
2

>  <Aromatic Atoms>
12

>  <Amides>
0

>  <Amines>
0

>  <Aromatic Nitrogens>
0

>  <Shape Index 2>
0.52941

>  <Molecular Flexibility 2>
0.33602

>  <Molecular Complexity 2>
0.76113

>  <Non-C/H Atoms>
5

>  <Electronegative Atoms 2>
5

>  <Stereo Centers 2>
0

>  <Rotatable Bonds 2>
1

>  <Rings Closures 2>
2

>  <Aromatic Rings 2>
2

>  <Aromatic Atoms 2>
12

>  <sp3-Atoms>
0

>  <Amides 2>
0

>  <Amines 2>
0

>  <Aromatic Nitrogens 2>
0

>  <Basic Nitrogens>
0

$$$$
2,3',4,4',5-Pentachlorobiphenyl
Actelion Java MolfileCreator 2.0

  0  0  0  0  0  0              0 V3000
M  V30 BEGIN CTAB
M  V30 COUNTS 17 18 0 0 0
M  V30 BEGIN ATOM
M  V30 1 Cl 0.0 0.0 0.0 0
M  V30 2 C -1.314 -0.7339 0.0 0
M  V30 3 C -2.628 0.0236 0.0 0
M  V30 4 C -1.3258 -2.2255 0.0 0
M  V30 5 Cl -2.6398 1.5389 0.0 0
M  V30 6 C -3.942 -0.7102 0.0 0
M  V30 7 Cl -0.0355 -2.9713 0.0 0
M  V30 8 C -2.6398 -2.9594 0.0 0
M  V30 9 Cl -5.256 0.0473 0.0 0
M  V30 10 C -3.9538 -2.2018 0.0 0
M  V30 11 C -2.6516 -4.451 0.0 0
M  V30 12 C -3.9656 -5.1849 0.0 0
M  V30 13 C -1.3613 -5.1849 0.0 0
M  V30 14 C -3.9775 -6.6765 0.0 0
M  V30 15 C -1.3731 -6.6765 0.0 0
M  V30 16 C -2.6871 -7.4104 0.0 0
M  V30 17 Cl -2.699 -8.902 0.0 0
M  V30 END ATOM
M  V30 BEGIN BOND
M  V30 1 1 1 2
M  V30 2 2 2 3
M  V30 3 1 2 4
M  V30 4 1 3 5
M  V30 5 1 3 6
M  V30 6 1 4 7
M  V30 7 2 4 8
M  V30 8 1 6 9
M  V30 9 2 6 10
M  V30 10 1 8 11
M  V30 11 2 11 12
M  V30 12 1 11 13
M  V30 13 1 12 14
M  V30 14 2 13 15
M  V30 15 2 14 16
M  V30 16 1 16 17
M  V30 17 1 8 10
M  V30 18 1 15 16
M  V30 END BOND
M  V30 END CTAB
M  END
>  <Molecule Name>
2,3',4,4',5-Pentachlorobiphenyl

>  <Order (spectra)>
58

>  <NAME>
2,3',4,4',5-Pentachlorobiphenyl

>  <Molecular Formula>
C12H5Cl5

>  <Monoisotopic Mass>
323.883385

>  <SMILES>
ClC1=CC=C(C=C1)C1=C(Cl)C(Cl)=C(Cl)C(Cl)=C1

>  <InChI>
InChI=1S/C12H5Cl5/c13-7-3-1-6(2-4-7)8-5-9(14)11(16)12(17)10(8)15/h1-5H

>  <InChIKey>
SXZSFWHOSHAKMN-UHFFFAOYSA-N

>  <Kingdom>
Organic compounds

>  <Superclass>
Benzenoids

>  <Class>
Benzene and substituted derivatives

>  <Subclass>
Biphenyls and derivatives

>  <Parent Level 1>
Chlorinated biphenyls

>  <Parent Level 2>
Polychlorinated biphenyls

>  <Parent Level 3>


>  <cLogP>
6.3488

>  <cLogS>
-7.382

>  <Druglikeness>
-1.9661

>  <NP-class probability>
0.01

>  <SmilesFragFp 3>


>  <MS_READY_SMILES>
ClC1=CC=C(C=C1)C1=C(Cl)C(Cl)=C(Cl)C(Cl)=C1

>  <MS_READY_InChI>
InChI=1S/C12H5Cl5/c13-7-3-1-6(2-4-7)8-5-9(14)11(16)12(17)10(8)15/h1-5H

>  <QSAR_READY_SMILES>
ClC1=CC=C(C=C1)C1=C(Cl)C(Cl)=C(Cl)C(Cl)=C1

>  <QSAR_READY_InChI>
InChI=1S/C12H5Cl5/c13-7-3-1-6(2-4-7)8-5-9(14)11(16)12(17)10(8)15/h1-5H

>  <DTXSID>
DTXSID9074226

>  <DTXCID>
DTXCID4047676

>  <CASRN>
74472-37-0

>  <EXPOCAST_MEDIAN_EXPOSURE_PREDICTION_MG/KG-BW/DAY>
5.58E-15

>  <BIOCONCENTRATION_FACTOR_TEST_PRED>
33496.5

>  <BOILING_POINT_DEGC_TEST_PRED>
378.545

>  <48HR_DAPHNIA_LC50_MOL/L_TEST_PRED>
2.00E-08

>  <DENSITY_G/CM^3_TEST_PRED>
1.518

>  <DEVTOX_TEST_PRED>
0.447

>  <96HR_FATHEAD_MINNOW_MOL/L_TEST_PRED>
6.70E-08

>  <FLASH_POINT_DEGC_TEST_PRED>
177.555

>  <MELTING_POINT_DEGC_TEST_PRED>
107.467

>  <AMES_MUTAGENICITY_TEST_PRED>
-0.004

>  <ORAL_RAT_LD50_MOL/KG_TEST_PRED>
0.000127057

>  <SURFACE_TENSION_DYN/CM_TEST_PRED>
-

>  <THERMAL_CONDUCTIVITY_MW/(M*K)_TEST_PRED>
123.337

>  <TETRAHYMENA_PYRIFORMIS_IGC50_MOL/L_TEST_PRED>
2.98E-07

>  <VISCOSITY_CP_CP_TEST_PRED>
-

>  <VAPOR_PRESSURE_MMHG_TEST_PRED>
7.33E-06

>  <WATER_SOLUBILITY_MOL/L_TEST_PRED>
2.86E-08

>  <ATMOSPHERIC_HYDROXYLATION_RATE_(AOH)_CM3/MOLECULE*SEC_OPERA_PRED>
6.54E-13

>  <BIOCONCENTRATION_FACTOR_OPERA_PRED>
176160

>  <BIODEGRADATION_HALF_LIFE_DAYS_DAYS_OPERA_PRED>
16.5155

>  <BOILING_POINT_DEGC_OPERA_PRED>
367.619

>  <HENRYS_LAW_ATM-M3/MOLE_OPERA_PRED>
4.95E-05

>  <OPERA_KM_DAYS_OPERA_PRED>
227.198

>  <OCTANOL_AIR_PARTITION_COEFF_LOGKOA_OPERA_PRED>
9.63664

>  <SOIL_ADSORPTION_COEFFICIENT_KOC_L/KG_OPERA_PRED>
226261

>  <OCTANOL_WATER_PARTITION_LOGP_OPERA_PRED>
6.49397

>  <MELTING_POINT_DEGC_OPERA_PRED>
98.0423

>  <VAPOR_PRESSURE_MMHG_OPERA_PRED>
1.46E-05

>  <WATER_SOLUBILITY_MOL/L_OPERA_PRED>
5.73E-08

>  <Shape Index>
0.58824

>  <Molecular Flexibility>
0.35448

>  <Molecular Complexity>
0.73536

>  <Electronegative Atoms>
5

>  <Stereo Centers>
0

>  <Rotatable Bonds>
1

>  <Rings Closures>
2

>  <Aromatic Rings>
2

>  <Aromatic Atoms>
12

>  <Amides>
0

>  <Amines>
0

>  <Aromatic Nitrogens>
0

>  <Shape Index 2>
0.58824

>  <Molecular Flexibility 2>
0.35448

>  <Molecular Complexity 2>
0.73536

>  <Non-C/H Atoms>
5

>  <Electronegative Atoms 2>
5

>  <Stereo Centers 2>
0

>  <Rotatable Bonds 2>
1

>  <Rings Closures 2>
2

>  <Aromatic Rings 2>
2

>  <Aromatic Atoms 2>
12

>  <sp3-Atoms>
0

>  <Amides 2>
0

>  <Amines 2>
0

>  <Aromatic Nitrogens 2>
0

>  <Basic Nitrogens>
0

$$$$
2,2',3,4,4',5'-Hexachlorobiphenyl
Actelion Java MolfileCreator 2.0

  0  0  0  0  0  0              0 V3000
M  V30 BEGIN CTAB
M  V30 COUNTS 18 19 0 0 0
M  V30 BEGIN ATOM
M  V30 1 Cl 0.0 0.0 0.0 0
M  V30 2 C -1.3067 -0.7416 0.0 0
M  V30 3 C -2.6134 0.0117 0.0 0
M  V30 4 C -1.3185 -2.2249 0.0 0
M  V30 5 Cl -2.6252 1.5186 0.0 0
M  V30 6 C -3.9202 -0.7181 0.0 0
M  V30 7 Cl -0.0353 -2.9666 0.0 0
M  V30 8 C -2.6252 -2.9666 0.0 0
M  V30 9 C -5.2269 0.0353 0.0 0
M  V30 10 C -3.9319 -2.2014 0.0 0
M  V30 11 C -5.2387 1.5421 0.0 0
M  V30 12 C -6.5336 -0.6945 0.0 0
M  V30 13 Cl -3.9555 2.2956 0.0 0
M  V30 14 C -6.5454 2.2956 0.0 0
M  V30 15 C -7.8404 0.0588 0.0 0
M  V30 16 C -7.8521 1.5539 0.0 0
M  V30 17 Cl -9.1471 -0.671 0.0 0
M  V30 18 Cl -9.1589 2.3073 0.0 0
M  V30 END ATOM
M  V30 BEGIN BOND
M  V30 1 1 1 2
M  V30 2 2 2 3
M  V30 3 1 2 4
M  V30 4 1 3 5
M  V30 5 1 3 6
M  V30 6 1 4 7
M  V30 7 2 4 8
M  V30 8 1 6 9
M  V30 9 2 6 10
M  V30 10 2 9 11
M  V30 11 1 9 12
M  V30 12 1 11 13
M  V30 13 1 11 14
M  V30 14 2 12 15
M  V30 15 2 14 16
M  V30 16 1 15 17
M  V30 17 1 16 18
M  V30 18 1 8 10
M  V30 19 1 15 16
M  V30 END BOND
M  V30 END CTAB
M  END
>  <Molecule Name>
2,2',3,4,4',5'-Hexachlorobiphenyl

>  <Order (spectra)>
59

>  <NAME>
2,2',3,4,4',5'-Hexachlorobiphenyl

>  <Molecular Formula>
C12H4Cl6

>  <Monoisotopic Mass>
357.844412

>  <SMILES>
ClC1=CC(Cl)=C(C=C1Cl)C1=C(Cl)C(Cl)=C(Cl)C=C1

>  <InChI>
InChI=1S/C12H4Cl6/c13-7-2-1-5(11(17)12(7)18)6-3-9(15)10(16)4-8(6)14/h1-4H

>  <InChIKey>
RPUMZMSNLZHIGZ-UHFFFAOYSA-N

>  <Kingdom>
Organic compounds

>  <Superclass>
Benzenoids

>  <Class>
Benzene and substituted derivatives

>  <Subclass>
Biphenyls and derivatives

>  <Parent Level 1>
Chlorinated biphenyls

>  <Parent Level 2>
Polychlorinated biphenyls

>  <Parent Level 3>


>  <cLogP>
6.9548

>  <cLogS>
-8.118

>  <Druglikeness>
-1.9661

>  <NP-class probability>
0.01

>  <SmilesFragFp 3>


>  <MS_READY_SMILES>
ClC1=CC(Cl)=C(C=C1Cl)C1=C(Cl)C(Cl)=C(Cl)C=C1

>  <MS_READY_InChI>
InChI=1S/C12H4Cl6/c13-7-2-1-5(11(17)12(7)18)6-3-9(15)10(16)4-8(6)14/h1-4H

>  <QSAR_READY_SMILES>
ClC1=CC(Cl)=C(C=C1Cl)C1=C(Cl)C(Cl)=C(Cl)C=C1

>  <QSAR_READY_InChI>
InChI=1S/C12H4Cl6/c13-7-2-1-5(11(17)12(7)18)6-3-9(15)10(16)4-8(6)14/h1-4H

>  <DTXSID>
DTXSID8038300

>  <DTXCID>
DTXCID6018300

>  <CASRN>
35065-28-2

>  <EXPOCAST_MEDIAN_EXPOSURE_PREDICTION_MG/KG-BW/DAY>
6.59E-15

>  <BIOCONCENTRATION_FACTOR_TEST_PRED>
66527.3

>  <BOILING_POINT_DEGC_TEST_PRED>
398.892

>  <48HR_DAPHNIA_LC50_MOL/L_TEST_PRED>
8.05E-09

>  <DENSITY_G/CM^3_TEST_PRED>
1.597

>  <DEVTOX_TEST_PRED>
0.461

>  <96HR_FATHEAD_MINNOW_MOL/L_TEST_PRED>
2.52E-08

>  <FLASH_POINT_DEGC_TEST_PRED>
187.908

>  <MELTING_POINT_DEGC_TEST_PRED>
114.375

>  <AMES_MUTAGENICITY_TEST_PRED>
-0.012

>  <ORAL_RAT_LD50_MOL/KG_TEST_PRED>
7.18E-05

>  <SURFACE_TENSION_DYN/CM_TEST_PRED>
-

>  <THERMAL_CONDUCTIVITY_MW/(M*K)_TEST_PRED>
113.969

>  <TETRAHYMENA_PYRIFORMIS_IGC50_MOL/L_TEST_PRED>
1.39E-07

>  <VISCOSITY_CP_CP_TEST_PRED>
-

>  <VAPOR_PRESSURE_MMHG_TEST_PRED>
1.99E-06

>  <WATER_SOLUBILITY_MOL/L_TEST_PRED>
1.01E-08

>  <ATMOSPHERIC_HYDROXYLATION_RATE_(AOH)_CM3/MOLECULE*SEC_OPERA_PRED>
6.59E-13

>  <BIOCONCENTRATION_FACTOR_OPERA_PRED>
375372

>  <BIODEGRADATION_HALF_LIFE_DAYS_DAYS_OPERA_PRED>
19.9407

>  <BOILING_POINT_DEGC_OPERA_PRED>
359.141

>  <HENRYS_LAW_ATM-M3/MOLE_OPERA_PRED>
2.11E-05

>  <OPERA_KM_DAYS_OPERA_PRED>
385.516

>  <OCTANOL_AIR_PARTITION_COEFF_LOGKOA_OPERA_PRED>
9.7986

>  <SOIL_ADSORPTION_COEFFICIENT_KOC_L/KG_OPERA_PRED>
843478

>  <OCTANOL_WATER_PARTITION_LOGP_OPERA_PRED>
7.34477

>  <MELTING_POINT_DEGC_OPERA_PRED>
96.6451

>  <VAPOR_PRESSURE_MMHG_OPERA_PRED>
2.12E-06

>  <WATER_SOLUBILITY_MOL/L_OPERA_PRED>
1.39E-08

>  <Shape Index>
0.55556

>  <Molecular Flexibility>
0.34538

>  <Molecular Complexity>
0.78992

>  <Electronegative Atoms>
6

>  <Stereo Centers>
0

>  <Rotatable Bonds>
1

>  <Rings Closures>
2

>  <Aromatic Rings>
2

>  <Aromatic Atoms>
12

>  <Amides>
0

>  <Amines>
0

>  <Aromatic Nitrogens>
0

>  <Shape Index 2>
0.55556

>  <Molecular Flexibility 2>
0.34538

>  <Molecular Complexity 2>
0.78992

>  <Non-C/H Atoms>
6

>  <Electronegative Atoms 2>
6

>  <Stereo Centers 2>
0

>  <Rotatable Bonds 2>
1

>  <Rings Closures 2>
2

>  <Aromatic Rings 2>
2

>  <Aromatic Atoms 2>
12

>  <sp3-Atoms>
0

>  <Amides 2>
0

>  <Amines 2>
0

>  <Aromatic Nitrogens 2>
0

>  <Basic Nitrogens>
0

$$$$
2,2',4,4',5,5'-Hexachlorobiphenyl
Actelion Java MolfileCreator 2.0

  0  0  0  0  0  0              0 V3000
M  V30 BEGIN CTAB
M  V30 COUNTS 18 19 0 0 0
M  V30 BEGIN ATOM
M  V30 1 Cl 0.0 0.0 0.0 0
M  V30 2 C -1.3101 -0.7318 0.0 0
M  V30 3 C -2.6203 0.0236 0.0 0
M  V30 4 C -1.3219 -2.219 0.0 0
M  V30 5 Cl -2.6321 1.5344 0.0 0
M  V30 6 C -3.9305 -0.7082 0.0 0
M  V30 7 C -2.6321 -2.9508 0.0 0
M  V30 8 C -3.9423 -2.1954 0.0 0
M  V30 9 Cl -2.6439 -4.4381 0.0 0
M  V30 10 C -5.2525 -2.9272 0.0 0
M  V30 11 C -6.5627 -2.1718 0.0 0
M  V30 12 C -5.2643 -4.4145 0.0 0
M  V30 13 Cl -6.5745 -0.6609 0.0 0
M  V30 14 C -7.8729 -2.9036 0.0 0
M  V30 15 C -6.5745 -5.1463 0.0 0
M  V30 16 C -7.8847 -4.3909 0.0 0
M  V30 17 Cl -6.5863 -6.6335 0.0 0
M  V30 18 Cl -9.1949 -5.1227 0.0 0
M  V30 END ATOM
M  V30 BEGIN BOND
M  V30 1 1 1 2
M  V30 2 2 2 3
M  V30 3 1 2 4
M  V30 4 1 3 5
M  V30 5 1 3 6
M  V30 6 2 4 7
M  V30 7 2 6 8
M  V30 8 1 7 9
M  V30 9 1 8 10
M  V30 10 2 10 11
M  V30 11 1 10 12
M  V30 12 1 11 13
M  V30 13 1 11 14
M  V30 14 2 12 15
M  V30 15 2 14 16
M  V30 16 1 15 17
M  V30 17 1 16 18
M  V30 18 1 7 8
M  V30 19 1 15 16
M  V30 END BOND
M  V30 END CTAB
M  END
>  <Molecule Name>
2,2',4,4',5,5'-Hexachlorobiphenyl

>  <Order (spectra)>
60

>  <NAME>
2,2',4,4',5,5'-Hexachlorobiphenyl

>  <Molecular Formula>
C12H4Cl6

>  <Monoisotopic Mass>
357.844412

>  <SMILES>
ClC1=CC(Cl)=C(C=C1Cl)C1=CC(Cl)=C(Cl)C=C1Cl

>  <InChI>
InChI=1S/C12H4Cl6/c13-7-3-11(17)9(15)1-5(7)6-2-10(16)12(18)4-8(6)14/h1-4H

>  <InChIKey>
MVWHGTYKUMDIHL-UHFFFAOYSA-N

>  <Kingdom>
Organic compounds

>  <Superclass>
Benzenoids

>  <Class>
Benzene and substituted derivatives

>  <Subclass>
Biphenyls and derivatives

>  <Parent Level 1>
Chlorinated biphenyls

>  <Parent Level 2>
Polychlorinated biphenyls

>  <Parent Level 3>


>  <cLogP>
6.9548

>  <cLogS>
-8.118

>  <Druglikeness>
-1.9661

>  <NP-class probability>
0.01

>  <SmilesFragFp 3>


>  <MS_READY_SMILES>
ClC1=CC(Cl)=C(C=C1Cl)C1=CC(Cl)=C(Cl)C=C1Cl

>  <MS_READY_InChI>
InChI=1S/C12H4Cl6/c13-7-3-11(17)9(15)1-5(7)6-2-10(16)12(18)4-8(6)14/h1-4H

>  <QSAR_READY_SMILES>
ClC1=CC(Cl)=C(C=C1Cl)C1=CC(Cl)=C(Cl)C=C1Cl

>  <QSAR_READY_InChI>
InChI=1S/C12H4Cl6/c13-7-3-11(17)9(15)1-5(7)6-2-10(16)12(18)4-8(6)14/h1-4H

>  <DTXSID>
DTXSID2032180

>  <DTXCID>
DTXCID0012180

>  <CASRN>
35065-27-1

>  <EXPOCAST_MEDIAN_EXPOSURE_PREDICTION_MG/KG-BW/DAY>
1.43E-14

>  <BIOCONCENTRATION_FACTOR_TEST_PRED>
92896.6

>  <BOILING_POINT_DEGC_TEST_PRED>
394.157

>  <48HR_DAPHNIA_LC50_MOL/L_TEST_PRED>
8.87E-09

>  <DENSITY_G/CM^3_TEST_PRED>
1.604

>  <DEVTOX_TEST_PRED>
0.393

>  <96HR_FATHEAD_MINNOW_MOL/L_TEST_PRED>
2.64E-08

>  <FLASH_POINT_DEGC_TEST_PRED>
188.399

>  <MELTING_POINT_DEGC_TEST_PRED>
126.598

>  <AMES_MUTAGENICITY_TEST_PRED>
-0.014

>  <ORAL_RAT_LD50_MOL/KG_TEST_PRED>
8.07E-05

>  <SURFACE_TENSION_DYN/CM_TEST_PRED>
-

>  <THERMAL_CONDUCTIVITY_MW/(M*K)_TEST_PRED>
119.832

>  <TETRAHYMENA_PYRIFORMIS_IGC50_MOL/L_TEST_PRED>
1.43E-07

>  <VISCOSITY_CP_CP_TEST_PRED>
-

>  <VAPOR_PRESSURE_MMHG_TEST_PRED>
2.35E-06

>  <WATER_SOLUBILITY_MOL/L_TEST_PRED>
5.00E-09

>  <ATMOSPHERIC_HYDROXYLATION_RATE_(AOH)_CM3/MOLECULE*SEC_OPERA_PRED>
6.59E-13

>  <BIOCONCENTRATION_FACTOR_OPERA_PRED>
273122

>  <BIODEGRADATION_HALF_LIFE_DAYS_DAYS_OPERA_PRED>
19.9489

>  <BOILING_POINT_DEGC_OPERA_PRED>
359.026

>  <HENRYS_LAW_ATM-M3/MOLE_OPERA_PRED>
2.32E-05

>  <OPERA_KM_DAYS_OPERA_PRED>
354.595

>  <OCTANOL_AIR_PARTITION_COEFF_LOGKOA_OPERA_PRED>
9.73319

>  <SOIL_ADSORPTION_COEFFICIENT_KOC_L/KG_OPERA_PRED>
386286

>  <OCTANOL_WATER_PARTITION_LOGP_OPERA_PRED>
6.56189

>  <MELTING_POINT_DEGC_OPERA_PRED>
89.4262

>  <VAPOR_PRESSURE_MMHG_OPERA_PRED>
1.37E-06

>  <WATER_SOLUBILITY_MOL/L_OPERA_PRED>
1.39E-08

>  <Shape Index>
0.55556

>  <Molecular Flexibility>
0.34538

>  <Molecular Complexity>
0.78472

>  <Electronegative Atoms>
6

>  <Stereo Centers>
0

>  <Rotatable Bonds>
1

>  <Rings Closures>
2

>  <Aromatic Rings>
2

>  <Aromatic Atoms>
12

>  <Amides>
0

>  <Amines>
0

>  <Aromatic Nitrogens>
0

>  <Shape Index 2>
0.55556

>  <Molecular Flexibility 2>
0.34538

>  <Molecular Complexity 2>
0.78472

>  <Non-C/H Atoms>
6

>  <Electronegative Atoms 2>
6

>  <Stereo Centers 2>
0

>  <Rotatable Bonds 2>
1

>  <Rings Closures 2>
2

>  <Aromatic Rings 2>
2

>  <Aromatic Atoms 2>
12

>  <sp3-Atoms>
0

>  <Amides 2>
0

>  <Amines 2>
0

>  <Aromatic Nitrogens 2>
0

>  <Basic Nitrogens>
0

$$$$
2,2',3,4,4',5,5'-Heptachlorobiphenyl
Actelion Java MolfileCreator 2.0

  0  0  0  0  0  0              0 V3000
M  V30 BEGIN CTAB
M  V30 COUNTS 19 20 0 0 0
M  V30 BEGIN ATOM
M  V30 1 Cl 0.0 0.0 0.0 0
M  V30 2 C -1.3136 -0.7337 0.0 0
M  V30 3 C -2.6273 0.0236 0.0 0
M  V30 4 C -1.3255 -2.2249 0.0 0
M  V30 5 Cl -2.6392 1.5385 0.0 0
M  V30 6 C -3.941 -0.7101 0.0 0
M  V30 7 Cl -0.0355 -2.9705 0.0 0
M  V30 8 C -2.6392 -2.9587 0.0 0
M  V30 9 Cl -5.2547 0.0473 0.0 0
M  V30 10 C -3.9529 -2.2013 0.0 0
M  V30 11 C -2.651 -4.4499 0.0 0
M  V30 12 C -3.9647 -5.1837 0.0 0
M  V30 13 C -1.361 -5.1837 0.0 0
M  V30 14 Cl -5.2784 -4.4263 0.0 0
M  V30 15 C -3.9765 -6.6749 0.0 0
M  V30 16 C -1.3728 -6.6749 0.0 0
M  V30 17 C -2.6865 -7.4087 0.0 0
M  V30 18 Cl -0.0828 -7.4205 0.0 0
M  V30 19 Cl -2.6983 -8.8999 0.0 0
M  V30 END ATOM
M  V30 BEGIN BOND
M  V30 1 1 1 2
M  V30 2 2 2 3
M  V30 3 1 2 4
M  V30 4 1 3 5
M  V30 5 1 3 6
M  V30 6 1 4 7
M  V30 7 2 4 8
M  V30 8 1 6 9
M  V30 9 2 6 10
M  V30 10 1 8 11
M  V30 11 2 11 12
M  V30 12 1 11 13
M  V30 13 1 12 14
M  V30 14 1 12 15
M  V30 15 2 13 16
M  V30 16 2 15 17
M  V30 17 1 16 18
M  V30 18 1 17 19
M  V30 19 1 8 10
M  V30 20 1 16 17
M  V30 END BOND
M  V30 END CTAB
M  END
>  <Molecule Name>
2,2',3,4,4',5,5'-Heptachlorobiphenyl

>  <Order (spectra)>
61

>  <NAME>
2,2',3,4,4',5,5'-Heptachlorobiphenyl

>  <Molecular Formula>
C12H3Cl7

>  <Monoisotopic Mass>
391.805439

>  <SMILES>
ClC1=CC(Cl)=C(C=C1Cl)C1=C(Cl)C(Cl)=C(Cl)C(Cl)=C1

>  <InChI>
InChI=1S/C12H3Cl7/c13-6-3-8(15)7(14)1-4(6)5-2-9(16)11(18)12(19)10(5)17/h1-3H

>  <InChIKey>
WBHQEUPUMONIKF-UHFFFAOYSA-N

>  <Kingdom>
Organic compounds

>  <Superclass>
Benzenoids

>  <Class>
Benzene and substituted derivatives

>  <Subclass>
Biphenyls and derivatives

>  <Parent Level 1>
Chlorinated biphenyls

>  <Parent Level 2>
Polychlorinated biphenyls

>  <Parent Level 3>


>  <cLogP>
7.5608

>  <cLogS>
-8.854

>  <Druglikeness>
-1.9661

>  <NP-class probability>
0.01

>  <SmilesFragFp 3>


>  <MS_READY_SMILES>
ClC1=CC(Cl)=C(C=C1Cl)C1=C(Cl)C(Cl)=C(Cl)C(Cl)=C1

>  <MS_READY_InChI>
InChI=1S/C12H3Cl7/c13-6-3-8(15)7(14)1-4(6)5-2-9(16)11(18)12(19)10(5)17/h1-3H

>  <QSAR_READY_SMILES>
ClC1=CC(Cl)=C(C=C1Cl)C1=C(Cl)C(Cl)=C(Cl)C(Cl)=C1

>  <QSAR_READY_InChI>
InChI=1S/C12H3Cl7/c13-6-3-8(15)7(14)1-4(6)5-2-9(16)11(18)12(19)10(5)17/h1-3H

>  <DTXSID>
DTXSID6038299

>  <DTXCID>
DTXCID4018299

>  <CASRN>
35065-29-3

>  <EXPOCAST_MEDIAN_EXPOSURE_PREDICTION_MG/KG-BW/DAY>
4.40E-14

>  <BIOCONCENTRATION_FACTOR_TEST_PRED>
137088

>  <BOILING_POINT_DEGC_TEST_PRED>
430.354

>  <48HR_DAPHNIA_LC50_MOL/L_TEST_PRED>
4.83E-09

>  <DENSITY_G/CM^3_TEST_PRED>
1.738

>  <DEVTOX_TEST_PRED>
0.452

>  <96HR_FATHEAD_MINNOW_MOL/L_TEST_PRED>
5.24E-09

>  <FLASH_POINT_DEGC_TEST_PRED>
196.687

>  <MELTING_POINT_DEGC_TEST_PRED>
123.927

>  <AMES_MUTAGENICITY_TEST_PRED>
0

>  <ORAL_RAT_LD50_MOL/KG_TEST_PRED>
0.000035156

>  <SURFACE_TENSION_DYN/CM_TEST_PRED>
-

>  <THERMAL_CONDUCTIVITY_MW/(M*K)_TEST_PRED>
112.593

>  <TETRAHYMENA_PYRIFORMIS_IGC50_MOL/L_TEST_PRED>
2.96E-07

>  <VISCOSITY_CP_CP_TEST_PRED>
-

>  <VAPOR_PRESSURE_MMHG_TEST_PRED>
5.87E-07

>  <WATER_SOLUBILITY_MOL/L_TEST_PRED>
3.29E-09

>  <ATMOSPHERIC_HYDROXYLATION_RATE_(AOH)_CM3/MOLECULE*SEC_OPERA_PRED>
6.79E-13

>  <BIOCONCENTRATION_FACTOR_OPERA_PRED>
449781

>  <BIODEGRADATION_HALF_LIFE_DAYS_DAYS_OPERA_PRED>
20.2397

>  <BOILING_POINT_DEGC_OPERA_PRED>
403.963

>  <HENRYS_LAW_ATM-M3/MOLE_OPERA_PRED>
9.79E-06

>  <OPERA_KM_DAYS_OPERA_PRED>
304.983

>  <OCTANOL_AIR_PARTITION_COEFF_LOGKOA_OPERA_PRED>
9.93723

>  <SOIL_ADSORPTION_COEFFICIENT_KOC_L/KG_OPERA_PRED>
812465

>  <OCTANOL_WATER_PARTITION_LOGP_OPERA_PRED>
7.71674

>  <MELTING_POINT_DEGC_OPERA_PRED>
118.813

>  <VAPOR_PRESSURE_MMHG_OPERA_PRED>
4.22E-07

>  <WATER_SOLUBILITY_MOL/L_OPERA_PRED>
3.32E-09

>  <Shape Index>
0.52632

>  <Molecular Flexibility>
0.33408

>  <Molecular Complexity>
0.81339

>  <Electronegative Atoms>
7

>  <Stereo Centers>
0

>  <Rotatable Bonds>
1

>  <Rings Closures>
2

>  <Aromatic Rings>
2

>  <Aromatic Atoms>
12

>  <Amides>
0

>  <Amines>
0

>  <Aromatic Nitrogens>
0

>  <Shape Index 2>
0.52632

>  <Molecular Flexibility 2>
0.33408

>  <Molecular Complexity 2>
0.81339

>  <Non-C/H Atoms>
7

>  <Electronegative Atoms 2>
7

>  <Stereo Centers 2>
0

>  <Rotatable Bonds 2>
1

>  <Rings Closures 2>
2

>  <Aromatic Rings 2>
2

>  <Aromatic Atoms 2>
12

>  <sp3-Atoms>
0

>  <Amides 2>
0

>  <Amines 2>
0

>  <Aromatic Nitrogens 2>
0

>  <Basic Nitrogens>
0

$$$$
2,2',5,5'-Tetrachlorobiphenyl
Actelion Java MolfileCreator 2.0

  0  0  0  0  0  0              0 V3000
M  V30 BEGIN CTAB
M  V30 COUNTS 16 17 0 0 0
M  V30 BEGIN ATOM
M  V30 1 Cl 0.0 0.0 0.0 0
M  V30 2 C -1.3074 -0.7302 0.0 0
M  V30 3 C -2.6148 0.0235 0.0 0
M  V30 4 C -1.3192 -2.2143 0.0 0
M  V30 5 C -2.6266 1.5312 0.0 0
M  V30 6 C -3.9222 -0.7067 0.0 0
M  V30 7 C -2.6266 -2.9446 0.0 0
M  V30 8 C -1.3427 2.285 0.0 0
M  V30 9 C -3.934 2.285 0.0 0
M  V30 10 C -3.934 -2.1908 0.0 0
M  V30 11 Cl -0.0588 1.5429 0.0 0
M  V30 12 C -1.3545 3.7927 0.0 0
M  V30 13 C -3.9458 3.7927 0.0 0
M  V30 14 Cl -5.2414 -2.921 0.0 0
M  V30 15 C -2.6619 4.5583 0.0 0
M  V30 16 Cl -5.2532 4.5465 0.0 0
M  V30 END ATOM
M  V30 BEGIN BOND
M  V30 1 1 1 2
M  V30 2 2 2 3
M  V30 3 1 2 4
M  V30 4 1 3 5
M  V30 5 1 3 6
M  V30 6 2 4 7
M  V30 7 2 5 8
M  V30 8 1 5 9
M  V30 9 2 6 10
M  V30 10 1 8 11
M  V30 11 1 8 12
M  V30 12 2 9 13
M  V30 13 1 10 14
M  V30 14 2 12 15
M  V30 15 1 13 16
M  V30 16 1 7 10
M  V30 17 1 13 15
M  V30 END BOND
M  V30 END CTAB
M  END
>  <Molecule Name>
2,2',5,5'-Tetrachlorobiphenyl

>  <Order (spectra)>
62

>  <NAME>
2,2',5,5'-Tetrachlorobiphenyl

>  <Molecular Formula>
C12H6Cl4

>  <Monoisotopic Mass>
289.922358

>  <SMILES>
ClC1=CC(=C(Cl)C=C1)C1=C(Cl)C=CC(Cl)=C1

>  <InChI>
InChI=1S/C12H6Cl4/c13-7-1-3-11(15)9(5-7)10-6-8(14)2-4-12(10)16/h1-6H

>  <InChIKey>
HCWZEPKLWVAEOV-UHFFFAOYSA-N

>  <Kingdom>
Organic compounds

>  <Superclass>
Benzenoids

>  <Class>
Benzene and substituted derivatives

>  <Subclass>
Biphenyls and derivatives

>  <Parent Level 1>
Chlorinated biphenyls

>  <Parent Level 2>
Polychlorinated biphenyls

>  <Parent Level 3>


>  <cLogP>
5.7428

>  <cLogS>
-6.646

>  <Druglikeness>
-1.9661

>  <NP-class probability>
0.01

>  <SmilesFragFp 3>


>  <MS_READY_SMILES>
ClC1=CC(=C(Cl)C=C1)C1=C(Cl)C=CC(Cl)=C1

>  <MS_READY_InChI>
InChI=1S/C12H6Cl4/c13-7-1-3-11(15)9(5-7)10-6-8(14)2-4-12(10)16/h1-6H

>  <QSAR_READY_SMILES>
ClC1=CC(=C(Cl)C=C1)C1=C(Cl)C=CC(Cl)=C1

>  <QSAR_READY_InChI>
InChI=1S/C12H6Cl4/c13-7-1-3-11(15)9(5-7)10-6-8(14)2-4-12(10)16/h1-6H

>  <DTXSID>
DTXSID3038305

>  <DTXCID>
DTXCID1018305

>  <CASRN>
35693-99-3

>  <EXPOCAST_MEDIAN_EXPOSURE_PREDICTION_MG/KG-BW/DAY>
2.33E-13

>  <BIOCONCENTRATION_FACTOR_TEST_PRED>
23280.9

>  <BOILING_POINT_DEGC_TEST_PRED>
326.437

>  <48HR_DAPHNIA_LC50_MOL/L_TEST_PRED>
9.53E-08

>  <DENSITY_G/CM^3_TEST_PRED>
1.405

>  <DEVTOX_TEST_PRED>
0.318

>  <96HR_FATHEAD_MINNOW_MOL/L_TEST_PRED>
2.92E-07

>  <FLASH_POINT_DEGC_TEST_PRED>
162.67

>  <MELTING_POINT_DEGC_TEST_PRED>
107.007

>  <AMES_MUTAGENICITY_TEST_PRED>
-0.052

>  <ORAL_RAT_LD50_MOL/KG_TEST_PRED>
0.000597035

>  <SURFACE_TENSION_DYN/CM_TEST_PRED>
-

>  <THERMAL_CONDUCTIVITY_MW/(M*K)_TEST_PRED>
121.028

>  <TETRAHYMENA_PYRIFORMIS_IGC50_MOL/L_TEST_PRED>
8.93E-07

>  <VISCOSITY_CP_CP_TEST_PRED>
-

>  <VAPOR_PRESSURE_MMHG_TEST_PRED>
4.45E-05

>  <WATER_SOLUBILITY_MOL/L_TEST_PRED>
9.53E-08

>  <ATMOSPHERIC_HYDROXYLATION_RATE_(AOH)_CM3/MOLECULE*SEC_OPERA_PRED>
7.92E-13

>  <BIOCONCENTRATION_FACTOR_OPERA_PRED>
19844.7

>  <BIODEGRADATION_HALF_LIFE_DAYS_DAYS_OPERA_PRED>
15.7577

>  <BOILING_POINT_DEGC_OPERA_PRED>
368.813

>  <HENRYS_LAW_ATM-M3/MOLE_OPERA_PRED>
0.000199392

>  <OPERA_KM_DAYS_OPERA_PRED>
262.373

>  <OCTANOL_AIR_PARTITION_COEFF_LOGKOA_OPERA_PRED>
8.49

>  <SOIL_ADSORPTION_COEFFICIENT_KOC_L/KG_OPERA_PRED>
131422

>  <OCTANOL_WATER_PARTITION_LOGP_OPERA_PRED>
6.1754

>  <MELTING_POINT_DEGC_OPERA_PRED>
109.503

>  <VAPOR_PRESSURE_MMHG_OPERA_PRED>
2.54E-05

>  <WATER_SOLUBILITY_MOL/L_OPERA_PRED>
1.71E-07

>  <Shape Index>
0.5

>  <Molecular Flexibility>
0.34898

>  <Molecular Complexity>
0.7268

>  <Electronegative Atoms>
4

>  <Stereo Centers>
0

>  <Rotatable Bonds>
1

>  <Rings Closures>
2

>  <Aromatic Rings>
2

>  <Aromatic Atoms>
12

>  <Amides>
0

>  <Amines>
0

>  <Aromatic Nitrogens>
0

>  <Shape Index 2>
0.5

>  <Molecular Flexibility 2>
0.34898

>  <Molecular Complexity 2>
0.7268

>  <Non-C/H Atoms>
4

>  <Electronegative Atoms 2>
4

>  <Stereo Centers 2>
0

>  <Rotatable Bonds 2>
1

>  <Rings Closures 2>
2

>  <Aromatic Rings 2>
2

>  <Aromatic Atoms 2>
12

>  <sp3-Atoms>
0

>  <Amides 2>
0

>  <Amines 2>
0

>  <Aromatic Nitrogens 2>
0

>  <Basic Nitrogens>
0

$$$$
2,3',4,6-Tetrachlorobiphenyl
Actelion Java MolfileCreator 2.0

  0  0  0  0  0  0              0 V3000
M  V30 BEGIN CTAB
M  V30 COUNTS 16 17 0 0 0
M  V30 BEGIN ATOM
M  V30 1 Cl 0.0 0.0 0.0 0
M  V30 2 C -1.3078 -0.7304 0.0 0
M  V30 3 C -2.6156 0.0235 0.0 0
M  V30 4 C -1.3195 -2.215 0.0 0
M  V30 5 C -3.9234 -0.7069 0.0 0
M  V30 6 C -2.6274 1.5316 0.0 0
M  V30 7 C -2.6274 -2.9455 0.0 0
M  V30 8 Cl -5.2312 0.0471 0.0 0
M  V30 9 C -3.9352 -2.1914 0.0 0
M  V30 10 C -1.3431 2.2857 0.0 0
M  V30 11 C -3.9352 2.2857 0.0 0
M  V30 12 Cl -2.6391 -4.43 0.0 0
M  V30 13 C -1.3549 3.7938 0.0 0
M  V30 14 C -3.9469 3.7938 0.0 0
M  V30 15 Cl -0.0706 4.5478 0.0 0
M  V30 16 C -2.6627 4.5596 0.0 0
M  V30 END ATOM
M  V30 BEGIN BOND
M  V30 1 1 1 2
M  V30 2 2 2 3
M  V30 3 1 2 4
M  V30 4 1 3 5
M  V30 5 1 3 6
M  V30 6 2 4 7
M  V30 7 1 5 8
M  V30 8 2 5 9
M  V30 9 2 6 10
M  V30 10 1 6 11
M  V30 11 1 7 12
M  V30 12 1 10 13
M  V30 13 2 11 14
M  V30 14 1 13 15
M  V30 15 2 13 16
M  V30 16 1 7 9
M  V30 17 1 14 16
M  V30 END BOND
M  V30 END CTAB
M  END
>  <Molecule Name>
2,3',4,6-Tetrachlorobiphenyl

>  <Order (spectra)>
63

>  <NAME>
2,3',4,6-Tetrachlorobiphenyl

>  <Molecular Formula>
C12H6Cl4

>  <Monoisotopic Mass>
289.922358

>  <SMILES>
ClC1=CC(=CC=C1)C1=C(Cl)C=C(Cl)C=C1Cl

>  <InChI>
InChI=1S/C12H6Cl4/c13-8-3-1-2-7(4-8)12-10(15)5-9(14)6-11(12)16/h1-6H

>  <InChIKey>
CKUBKYSLNCKBOI-UHFFFAOYSA-N

>  <Kingdom>
Organic compounds

>  <Superclass>
Benzenoids

>  <Class>
Benzene and substituted derivatives

>  <Subclass>
Biphenyls and derivatives

>  <Parent Level 1>
Chlorinated biphenyls

>  <Parent Level 2>
Polychlorinated biphenyls

>  <Parent Level 3>


>  <cLogP>
5.7428

>  <cLogS>
-6.646

>  <Druglikeness>
-1.9661

>  <NP-class probability>
0.01

>  <SmilesFragFp 3>


>  <MS_READY_SMILES>
ClC1=CC(=CC=C1)C1=C(Cl)C=C(Cl)C=C1Cl

>  <MS_READY_InChI>
InChI=1S/C12H6Cl4/c13-8-3-1-2-7(4-8)12-10(15)5-9(14)6-11(12)16/h1-6H

>  <QSAR_READY_SMILES>
ClC1=CC(=CC=C1)C1=C(Cl)C=C(Cl)C=C1Cl

>  <QSAR_READY_InChI>
InChI=1S/C12H6Cl4/c13-8-3-1-2-7(4-8)12-10(15)5-9(14)6-11(12)16/h1-6H

>  <DTXSID>
DTXSID4074192

>  <DTXCID>
DTXCID7042776

>  <CASRN>
60233-24-1

>  <EXPOCAST_MEDIAN_EXPOSURE_PREDICTION_MG/KG-BW/DAY>
4.23E-12

>  <BIOCONCENTRATION_FACTOR_TEST_PRED>
21978.6

>  <BOILING_POINT_DEGC_TEST_PRED>
350.882

>  <48HR_DAPHNIA_LC50_MOL/L_TEST_PRED>
4.35E-08

>  <DENSITY_G/CM^3_TEST_PRED>
1.433

>  <DEVTOX_TEST_PRED>
0.39

>  <96HR_FATHEAD_MINNOW_MOL/L_TEST_PRED>
3.12E-07

>  <FLASH_POINT_DEGC_TEST_PRED>
160.115

>  <MELTING_POINT_DEGC_TEST_PRED>
95.253

>  <AMES_MUTAGENICITY_TEST_PRED>
-0.073

>  <ORAL_RAT_LD50_MOL/KG_TEST_PRED>
0.00131826

>  <SURFACE_TENSION_DYN/CM_TEST_PRED>
-

>  <THERMAL_CONDUCTIVITY_MW/(M*K)_TEST_PRED>
123.299

>  <TETRAHYMENA_PYRIFORMIS_IGC50_MOL/L_TEST_PRED>
8.17E-07

>  <VISCOSITY_CP_CP_TEST_PRED>
-

>  <VAPOR_PRESSURE_MMHG_TEST_PRED>
0.000033037

>  <WATER_SOLUBILITY_MOL/L_TEST_PRED>
1.07E-07

>  <ATMOSPHERIC_HYDROXYLATION_RATE_(AOH)_CM3/MOLECULE*SEC_OPERA_PRED>
7.98E-13

>  <BIOCONCENTRATION_FACTOR_OPERA_PRED>
28459.1

>  <BIODEGRADATION_HALF_LIFE_DAYS_DAYS_OPERA_PRED>
15.5755

>  <BOILING_POINT_DEGC_OPERA_PRED>
370.152

>  <HENRYS_LAW_ATM-M3/MOLE_OPERA_PRED>
0.000208773

>  <OPERA_KM_DAYS_OPERA_PRED>
281.039

>  <OCTANOL_AIR_PARTITION_COEFF_LOGKOA_OPERA_PRED>
8.52543

>  <SOIL_ADSORPTION_COEFFICIENT_KOC_L/KG_OPERA_PRED>
87627.8

>  <OCTANOL_WATER_PARTITION_LOGP_OPERA_PRED>
6.07325

>  <MELTING_POINT_DEGC_OPERA_PRED>
105.524

>  <VAPOR_PRESSURE_MMHG_OPERA_PRED>
3.92E-05

>  <WATER_SOLUBILITY_MOL/L_OPERA_PRED>
9.33E-08

>  <Shape Index>
0.5625

>  <Molecular Flexibility>
0.34589

>  <Molecular Complexity>
0.71485

>  <Electronegative Atoms>
4

>  <Stereo Centers>
0

>  <Rotatable Bonds>
1

>  <Rings Closures>
2

>  <Aromatic Rings>
2

>  <Aromatic Atoms>
12

>  <Amides>
0

>  <Amines>
0

>  <Aromatic Nitrogens>
0

>  <Shape Index 2>
0.5625

>  <Molecular Flexibility 2>
0.34589

>  <Molecular Complexity 2>
0.71485

>  <Non-C/H Atoms>
4

>  <Electronegative Atoms 2>
4

>  <Stereo Centers 2>
0

>  <Rotatable Bonds 2>
1

>  <Rings Closures 2>
2

>  <Aromatic Rings 2>
2

>  <Aromatic Atoms 2>
12

>  <sp3-Atoms>
0

>  <Amides 2>
0

>  <Amines 2>
0

>  <Aromatic Nitrogens 2>
0

>  <Basic Nitrogens>
0

$$$$
2,3',5',6-Tetrachlorobiphenyl
Actelion Java MolfileCreator 2.0

  0  0  0  0  0  0              0 V3000
M  V30 BEGIN CTAB
M  V30 COUNTS 16 17 0 0 0
M  V30 BEGIN ATOM
M  V30 1 Cl 0.0 0.0 0.0 0
M  V30 2 C -1.3065 -0.7297 0.0 0
M  V30 3 C -2.613 0.0235 0.0 0
M  V30 4 C -1.3182 -2.2128 0.0 0
M  V30 5 C -3.9195 -0.7062 0.0 0
M  V30 6 C -2.6248 1.5301 0.0 0
M  V30 7 C -2.6248 -2.9426 0.0 0
M  V30 8 Cl -5.2261 0.047 0.0 0
M  V30 9 C -3.9313 -2.1893 0.0 0
M  V30 10 C -1.3418 2.2834 0.0 0
M  V30 11 C -3.9313 2.2834 0.0 0
M  V30 12 C -1.3536 3.7901 0.0 0
M  V30 13 C -3.9431 3.7901 0.0 0
M  V30 14 Cl -0.0706 4.5434 0.0 0
M  V30 15 C -2.6601 4.5551 0.0 0
M  V30 16 Cl -5.2496 4.5434 0.0 0
M  V30 END ATOM
M  V30 BEGIN BOND
M  V30 1 1 1 2
M  V30 2 2 2 3
M  V30 3 1 2 4
M  V30 4 1 3 5
M  V30 5 1 3 6
M  V30 6 2 4 7
M  V30 7 1 5 8
M  V30 8 2 5 9
M  V30 9 2 6 10
M  V30 10 1 6 11
M  V30 11 1 10 12
M  V30 12 2 11 13
M  V30 13 1 12 14
M  V30 14 2 12 15
M  V30 15 1 13 16
M  V30 16 1 7 9
M  V30 17 1 13 15
M  V30 END BOND
M  V30 END CTAB
M  END
>  <Molecule Name>
2,3',5',6-Tetrachlorobiphenyl

>  <Order (spectra)>
64

>  <NAME>
2,3',5',6-Tetrachlorobiphenyl

>  <Molecular Formula>
C12H6Cl4

>  <Monoisotopic Mass>
289.922358

>  <SMILES>
ClC1=CC(=CC(Cl)=C1)C1=C(Cl)C=CC=C1Cl

>  <InChI>
InChI=1S/C12H6Cl4/c13-8-4-7(5-9(14)6-8)12-10(15)2-1-3-11(12)16/h1-6H

>  <InChIKey>
HDULUCZRGGWTMZ-UHFFFAOYSA-N

>  <Kingdom>
Organic compounds

>  <Superclass>
Benzenoids

>  <Class>
Benzene and substituted derivatives

>  <Subclass>
Biphenyls and derivatives

>  <Parent Level 1>
Chlorinated biphenyls

>  <Parent Level 2>
Polychlorinated biphenyls

>  <Parent Level 3>


>  <cLogP>
5.7428

>  <cLogS>
-6.646

>  <Druglikeness>
-1.9661

>  <NP-class probability>
0.01

>  <SmilesFragFp 3>


>  <MS_READY_SMILES>
ClC1=CC(=CC(Cl)=C1)C1=C(Cl)C=CC=C1Cl

>  <MS_READY_InChI>
InChI=1S/C12H6Cl4/c13-8-4-7(5-9(14)6-8)12-10(15)2-1-3-11(12)16/h1-6H

>  <QSAR_READY_SMILES>
ClC1=CC(=CC(Cl)=C1)C1=C(Cl)C=CC=C1Cl

>  <QSAR_READY_InChI>
InChI=1S/C12H6Cl4/c13-8-4-7(5-9(14)6-8)12-10(15)2-1-3-11(12)16/h1-6H

>  <DTXSID>
DTXSID9074220

>  <DTXCID>
DTXCID8047632

>  <CASRN>
74338-23-1

>  <EXPOCAST_MEDIAN_EXPOSURE_PREDICTION_MG/KG-BW/DAY>
4.86E-12

>  <BIOCONCENTRATION_FACTOR_TEST_PRED>
22908.7

>  <BOILING_POINT_DEGC_TEST_PRED>
325.987

>  <48HR_DAPHNIA_LC50_MOL/L_TEST_PRED>
8.81E-08

>  <DENSITY_G/CM^3_TEST_PRED>
1.406

>  <DEVTOX_TEST_PRED>
0.32

>  <96HR_FATHEAD_MINNOW_MOL/L_TEST_PRED>
3.08E-07

>  <FLASH_POINT_DEGC_TEST_PRED>
162.316

>  <MELTING_POINT_DEGC_TEST_PRED>
99.477

>  <AMES_MUTAGENICITY_TEST_PRED>
-0.046

>  <ORAL_RAT_LD50_MOL/KG_TEST_PRED>
0.00104713

>  <SURFACE_TENSION_DYN/CM_TEST_PRED>
-

>  <THERMAL_CONDUCTIVITY_MW/(M*K)_TEST_PRED>
121.807

>  <TETRAHYMENA_PYRIFORMIS_IGC50_MOL/L_TEST_PRED>
8.53E-07

>  <VISCOSITY_CP_CP_TEST_PRED>
-

>  <VAPOR_PRESSURE_MMHG_TEST_PRED>
3.77E-05

>  <WATER_SOLUBILITY_MOL/L_TEST_PRED>
1.59E-07

>  <ATMOSPHERIC_HYDROXYLATION_RATE_(AOH)_CM3/MOLECULE*SEC_OPERA_PRED>
8.30E-13

>  <BIOCONCENTRATION_FACTOR_OPERA_PRED>
30300.9

>  <BIODEGRADATION_HALF_LIFE_DAYS_DAYS_OPERA_PRED>
15.9802

>  <BOILING_POINT_DEGC_OPERA_PRED>
369.695

>  <HENRYS_LAW_ATM-M3/MOLE_OPERA_PRED>
0.00016607

>  <OPERA_KM_DAYS_OPERA_PRED>
264.975

>  <OCTANOL_AIR_PARTITION_COEFF_LOGKOA_OPERA_PRED>
8.52732

>  <SOIL_ADSORPTION_COEFFICIENT_KOC_L/KG_OPERA_PRED>
99995.9

>  <OCTANOL_WATER_PARTITION_LOGP_OPERA_PRED>
5.99917

>  <MELTING_POINT_DEGC_OPERA_PRED>
105.893

>  <VAPOR_PRESSURE_MMHG_OPERA_PRED>
3.06E-05

>  <WATER_SOLUBILITY_MOL/L_OPERA_PRED>
1.15E-07

>  <Shape Index>
0.5

>  <Molecular Flexibility>
0.37143

>  <Molecular Complexity>
0.69646

>  <Electronegative Atoms>
4

>  <Stereo Centers>
0

>  <Rotatable Bonds>
1

>  <Rings Closures>
2

>  <Aromatic Rings>
2

>  <Aromatic Atoms>
12

>  <Amides>
0

>  <Amines>
0

>  <Aromatic Nitrogens>
0

>  <Shape Index 2>
0.5

>  <Molecular Flexibility 2>
0.37143

>  <Molecular Complexity 2>
0.69646

>  <Non-C/H Atoms>
4

>  <Electronegative Atoms 2>
4

>  <Stereo Centers 2>
0

>  <Rotatable Bonds 2>
1

>  <Rings Closures 2>
2

>  <Aromatic Rings 2>
2

>  <Aromatic Atoms 2>
12

>  <sp3-Atoms>
0

>  <Amides 2>
0

>  <Amines 2>
0

>  <Aromatic Nitrogens 2>
0

>  <Basic Nitrogens>
0

$$$$
2,2',3,4',5-Pentachlorobiphenyl
Actelion Java MolfileCreator 2.0

  0  0  0  0  0  0              0 V3000
M  V30 BEGIN CTAB
M  V30 COUNTS 17 18 0 0 0
M  V30 BEGIN ATOM
M  V30 1 Cl 0.0 0.0 0.0 0
M  V30 2 C -1.3131 -0.7452 0.0 0
M  V30 3 C -2.6262 0.0118 0.0 0
M  V30 4 C -1.3249 -2.2358 0.0 0
M  V30 5 Cl -2.638 1.526 0.0 0
M  V30 6 C -3.9393 -0.7216 0.0 0
M  V30 7 C -0.0354 -2.9811 0.0 0
M  V30 8 C -2.638 -2.9811 0.0 0
M  V30 9 C -3.9511 -2.2121 0.0 0
M  V30 10 C -0.0473 -4.4717 0.0 0
M  V30 11 C 1.2539 -2.224 0.0 0
M  V30 12 Cl -5.2643 -2.9574 0.0 0
M  V30 13 Cl -1.3604 -5.2051 0.0 0
M  V30 14 C 1.2421 -5.2169 0.0 0
M  V30 15 C 2.5434 -2.9693 0.0 0
M  V30 16 C 2.5316 -4.4598 0.0 0
M  V30 17 Cl 3.821 -5.2051 0.0 0
M  V30 END ATOM
M  V30 BEGIN BOND
M  V30 1 1 1 2
M  V30 2 2 2 3
M  V30 3 1 2 4
M  V30 4 1 3 5
M  V30 5 1 3 6
M  V30 6 1 4 7
M  V30 7 2 4 8
M  V30 8 2 6 9
M  V30 9 2 7 10
M  V30 10 1 7 11
M  V30 11 1 9 12
M  V30 12 1 10 13
M  V30 13 1 10 14
M  V30 14 2 11 15
M  V30 15 2 14 16
M  V30 16 1 16 17
M  V30 17 1 8 9
M  V30 18 1 15 16
M  V30 END BOND
M  V30 END CTAB
M  END
>  <Molecule Name>
2,2',3,4',5-Pentachlorobiphenyl

>  <Order (spectra)>
65

>  <NAME>
2,2',3,4',5-Pentachlorobiphenyl

>  <Molecular Formula>
C12H5Cl5

>  <Monoisotopic Mass>
323.883385

>  <SMILES>
ClC1=CC(Cl)=C(C=C1)C1=C(Cl)C(Cl)=CC(Cl)=C1

>  <InChI>
InChI=1S/C12H5Cl5/c13-6-1-2-8(10(15)4-6)9-3-7(14)5-11(16)12(9)17/h1-5H

>  <InChIKey>
SUOAMBOBSWRMNQ-UHFFFAOYSA-N

>  <Kingdom>
Organic compounds

>  <Superclass>
Benzenoids

>  <Class>
Benzene and substituted derivatives

>  <Subclass>
Biphenyls and derivatives

>  <Parent Level 1>
Chlorinated biphenyls

>  <Parent Level 2>
Polychlorinated biphenyls

>  <Parent Level 3>


>  <cLogP>
6.3488

>  <cLogS>
-7.382

>  <Druglikeness>
-1.9661

>  <NP-class probability>
0.01

>  <SmilesFragFp 3>


>  <MS_READY_SMILES>
ClC1=CC(Cl)=C(C=C1)C1=C(Cl)C(Cl)=CC(Cl)=C1

>  <MS_READY_InChI>
InChI=1S/C12H5Cl5/c13-6-1-2-8(10(15)4-6)9-3-7(14)5-11(16)12(9)17/h1-5H

>  <QSAR_READY_SMILES>
ClC1=CC(Cl)=C(C=C1)C1=C(Cl)C(Cl)=CC(Cl)=C1

>  <QSAR_READY_InChI>
InChI=1S/C12H5Cl5/c13-6-1-2-8(10(15)4-6)9-3-7(14)5-11(16)12(9)17/h1-5H

>  <DTXSID>
DTXSID4074196

>  <DTXCID>
DTXCID5045671

>  <CASRN>
68194-07-0

>  <EXPOCAST_MEDIAN_EXPOSURE_PREDICTION_MG/KG-BW/DAY>
2.60E-12

>  <BIOCONCENTRATION_FACTOR_TEST_PRED>
35727.3

>  <BOILING_POINT_DEGC_TEST_PRED>
375.56

>  <48HR_DAPHNIA_LC50_MOL/L_TEST_PRED>
1.87E-08

>  <DENSITY_G/CM^3_TEST_PRED>
1.517

>  <DEVTOX_TEST_PRED>
0.44

>  <96HR_FATHEAD_MINNOW_MOL/L_TEST_PRED>
6.19E-08

>  <FLASH_POINT_DEGC_TEST_PRED>
182.092

>  <MELTING_POINT_DEGC_TEST_PRED>
102.227

>  <AMES_MUTAGENICITY_TEST_PRED>
-0.012

>  <ORAL_RAT_LD50_MOL/KG_TEST_PRED>
0.000555904

>  <SURFACE_TENSION_DYN/CM_TEST_PRED>
-

>  <THERMAL_CONDUCTIVITY_MW/(M*K)_TEST_PRED>
121.388

>  <TETRAHYMENA_PYRIFORMIS_IGC50_MOL/L_TEST_PRED>
2.88E-07

>  <VISCOSITY_CP_CP_TEST_PRED>
-

>  <VAPOR_PRESSURE_MMHG_TEST_PRED>
1.02E-05

>  <WATER_SOLUBILITY_MOL/L_TEST_PRED>
4.10E-08

>  <ATMOSPHERIC_HYDROXYLATION_RATE_(AOH)_CM3/MOLECULE*SEC_OPERA_PRED>
5.72E-13

>  <BIOCONCENTRATION_FACTOR_OPERA_PRED>
181741

>  <BIODEGRADATION_HALF_LIFE_DAYS_DAYS_OPERA_PRED>
15.682

>  <BOILING_POINT_DEGC_OPERA_PRED>
365.971

>  <HENRYS_LAW_ATM-M3/MOLE_OPERA_PRED>
7.95E-05

>  <OPERA_KM_DAYS_OPERA_PRED>
260.29

>  <OCTANOL_AIR_PARTITION_COEFF_LOGKOA_OPERA_PRED>
8.87888

>  <SOIL_ADSORPTION_COEFFICIENT_KOC_L/KG_OPERA_PRED>
157881

>  <OCTANOL_WATER_PARTITION_LOGP_OPERA_PRED>
6.68797

>  <MELTING_POINT_DEGC_OPERA_PRED>
95.2362

>  <VAPOR_PRESSURE_MMHG_OPERA_PRED>
9.16E-06

>  <WATER_SOLUBILITY_MOL/L_OPERA_PRED>
1.98E-08

>  <Shape Index>
0.52941

>  <Molecular Flexibility>
0.33602

>  <Molecular Complexity>
0.7569

>  <Electronegative Atoms>
5

>  <Stereo Centers>
0

>  <Rotatable Bonds>
1

>  <Rings Closures>
2

>  <Aromatic Rings>
2

>  <Aromatic Atoms>
12

>  <Amides>
0

>  <Amines>
0

>  <Aromatic Nitrogens>
0

>  <Shape Index 2>
0.52941

>  <Molecular Flexibility 2>
0.33602

>  <Molecular Complexity 2>
0.7569

>  <Non-C/H Atoms>
5

>  <Electronegative Atoms 2>
5

>  <Stereo Centers 2>
0

>  <Rotatable Bonds 2>
1

>  <Rings Closures 2>
2

>  <Aromatic Rings 2>
2

>  <Aromatic Atoms 2>
12

>  <sp3-Atoms>
0

>  <Amides 2>
0

>  <Amines 2>
0

>  <Aromatic Nitrogens 2>
0

>  <Basic Nitrogens>
0

$$$$
2,3,3',4,5-Pentachlorobiphenyl
Actelion Java MolfileCreator 2.0

  0  0  0  0  0  0              0 V3000
M  V30 BEGIN CTAB
M  V30 COUNTS 17 18 0 0 0
M  V30 BEGIN ATOM
M  V30 1 Cl 0.0 0.0 0.0 0
M  V30 2 C -1.3136 -0.7337 0.0 0
M  V30 3 C -2.6272 0.0236 0.0 0
M  V30 4 C -1.3254 -2.2248 0.0 0
M  V30 5 Cl -2.639 1.5384 0.0 0
M  V30 6 C -3.9408 -0.71 0.0 0
M  V30 7 Cl -0.0355 -2.9586 0.0 0
M  V30 8 C -2.639 -2.9586 0.0 0
M  V30 9 Cl -5.2545 0.0473 0.0 0
M  V30 10 C -3.9527 -2.2012 0.0 0
M  V30 11 C -2.6509 -4.4497 0.0 0
M  V30 12 C -3.9645 -5.1834 0.0 0
M  V30 13 C -1.3609 -5.1953 0.0 0
M  V30 14 C -3.9763 -6.6746 0.0 0
M  V30 15 C -1.3727 -6.6864 0.0 0
M  V30 16 Cl -5.29 -7.4083 0.0 0
M  V30 17 C -2.6864 -7.4083 0.0 0
M  V30 END ATOM
M  V30 BEGIN BOND
M  V30 1 1 1 2
M  V30 2 2 2 3
M  V30 3 1 2 4
M  V30 4 1 3 5
M  V30 5 1 3 6
M  V30 6 1 4 7
M  V30 7 2 4 8
M  V30 8 1 6 9
M  V30 9 2 6 10
M  V30 10 1 8 11
M  V30 11 2 11 12
M  V30 12 1 11 13
M  V30 13 1 12 14
M  V30 14 2 13 15
M  V30 15 1 14 16
M  V30 16 2 14 17
M  V30 17 1 8 10
M  V30 18 1 15 17
M  V30 END BOND
M  V30 END CTAB
M  END
>  <Molecule Name>
2,3,3',4,5-Pentachlorobiphenyl

>  <Order (spectra)>
66

>  <NAME>
2,3,3',4,5-Pentachlorobiphenyl

>  <Molecular Formula>
C12H5Cl5

>  <Monoisotopic Mass>
323.883385

>  <SMILES>
ClC1=CC=CC(=C1)C1=C(Cl)C(Cl)=C(Cl)C(Cl)=C1

>  <InChI>
InChI=1S/C12H5Cl5/c13-7-3-1-2-6(4-7)8-5-9(14)11(16)12(17)10(8)15/h1-5H

>  <InChIKey>
BQENMISTWGTJIJ-UHFFFAOYSA-N

>  <Kingdom>
Organic compounds

>  <Superclass>
Benzenoids

>  <Class>
Benzene and substituted derivatives

>  <Subclass>
Biphenyls and derivatives

>  <Parent Level 1>
Chlorinated biphenyls

>  <Parent Level 2>
Polychlorinated biphenyls

>  <Parent Level 3>


>  <cLogP>
6.3488

>  <cLogS>
-7.382

>  <Druglikeness>
-1.9661

>  <NP-class probability>
0.01

>  <SmilesFragFp 3>


>  <MS_READY_SMILES>
ClC1=CC=CC(=C1)C1=C(Cl)C(Cl)=C(Cl)C(Cl)=C1

>  <MS_READY_InChI>
InChI=1S/C12H5Cl5/c13-7-3-1-2-6(4-7)8-5-9(14)11(16)12(17)10(8)15/h1-5H

>  <QSAR_READY_SMILES>
ClC1=CC=CC(=C1)C1=C(Cl)C(Cl)=C(Cl)C(Cl)=C1

>  <QSAR_READY_InChI>
InChI=1S/C12H5Cl5/c13-7-3-1-2-6(4-7)8-5-9(14)11(16)12(17)10(8)15/h1-5H

>  <DTXSID>
DTXSID5074212

>  <DTXCID>
DTXCID6046684

>  <CASRN>
70424-69-0

>  <EXPOCAST_MEDIAN_EXPOSURE_PREDICTION_MG/KG-BW/DAY>
3.07E-12

>  <BIOCONCENTRATION_FACTOR_TEST_PRED>
32062.7

>  <BOILING_POINT_DEGC_TEST_PRED>
375.127

>  <48HR_DAPHNIA_LC50_MOL/L_TEST_PRED>
2.20E-08

>  <DENSITY_G/CM^3_TEST_PRED>
1.518

>  <DEVTOX_TEST_PRED>
0.452

>  <96HR_FATHEAD_MINNOW_MOL/L_TEST_PRED>
6.49E-08

>  <FLASH_POINT_DEGC_TEST_PRED>
179.869

>  <MELTING_POINT_DEGC_TEST_PRED>
105.179

>  <AMES_MUTAGENICITY_TEST_PRED>
-0.014

>  <ORAL_RAT_LD50_MOL/KG_TEST_PRED>
0.000252348

>  <SURFACE_TENSION_DYN/CM_TEST_PRED>
-

>  <THERMAL_CONDUCTIVITY_MW/(M*K)_TEST_PRED>
122.937

>  <TETRAHYMENA_PYRIFORMIS_IGC50_MOL/L_TEST_PRED>
2.88E-07

>  <VISCOSITY_CP_CP_TEST_PRED>
-

>  <VAPOR_PRESSURE_MMHG_TEST_PRED>
9.35E-06

>  <WATER_SOLUBILITY_MOL/L_TEST_PRED>
3.80E-08

>  <ATMOSPHERIC_HYDROXYLATION_RATE_(AOH)_CM3/MOLECULE*SEC_OPERA_PRED>
6.39E-13

>  <BIOCONCENTRATION_FACTOR_OPERA_PRED>
206013

>  <BIODEGRADATION_HALF_LIFE_DAYS_DAYS_OPERA_PRED>
13.2508

>  <BOILING_POINT_DEGC_OPERA_PRED>
367.619

>  <HENRYS_LAW_ATM-M3/MOLE_OPERA_PRED>
5.80E-05

>  <OPERA_KM_DAYS_OPERA_PRED>
299.747

>  <OCTANOL_AIR_PARTITION_COEFF_LOGKOA_OPERA_PRED>
9.63664

>  <SOIL_ADSORPTION_COEFFICIENT_KOC_L/KG_OPERA_PRED>
165972

>  <OCTANOL_WATER_PARTITION_LOGP_OPERA_PRED>
6.48876

>  <MELTING_POINT_DEGC_OPERA_PRED>
99.7405

>  <VAPOR_PRESSURE_MMHG_OPERA_PRED>
1.91E-05

>  <WATER_SOLUBILITY_MOL/L_OPERA_PRED>
3.31E-08

>  <Shape Index>
0.52941

>  <Molecular Flexibility>
0.35448

>  <Molecular Complexity>
0.75032

>  <Electronegative Atoms>
5

>  <Stereo Centers>
0

>  <Rotatable Bonds>
1

>  <Rings Closures>
2

>  <Aromatic Rings>
2

>  <Aromatic Atoms>
12

>  <Amides>
0

>  <Amines>
0

>  <Aromatic Nitrogens>
0

>  <Shape Index 2>
0.52941

>  <Molecular Flexibility 2>
0.35448

>  <Molecular Complexity 2>
0.75032

>  <Non-C/H Atoms>
5

>  <Electronegative Atoms 2>
5

>  <Stereo Centers 2>
0

>  <Rotatable Bonds 2>
1

>  <Rings Closures 2>
2

>  <Aromatic Rings 2>
2

>  <Aromatic Atoms 2>
12

>  <sp3-Atoms>
0

>  <Amides 2>
0

>  <Amines 2>
0

>  <Aromatic Nitrogens 2>
0

>  <Basic Nitrogens>
0

$$$$
3,3',4,5,5'-Pentachlorobiphenyl
Actelion Java MolfileCreator 2.0

  0  0  0  0  0  0              0 V3000
M  V30 BEGIN CTAB
M  V30 COUNTS 17 18 0 0 0
M  V30 BEGIN ATOM
M  V30 1 Cl 0.0 0.0 0.0 0
M  V30 2 C -1.3104 -0.7319 0.0 0
M  V30 3 C -2.6209 0.0236 0.0 0
M  V30 4 C -1.3223 -2.2195 0.0 0
M  V30 5 Cl -2.6328 1.5348 0.0 0
M  V30 6 C -3.9314 -0.7083 0.0 0
M  V30 7 Cl -0.0354 -2.9515 0.0 0
M  V30 8 C -2.6328 -2.9515 0.0 0
M  V30 9 C -3.9432 -2.1959 0.0 0
M  V30 10 C -5.2537 -2.9279 0.0 0
M  V30 11 C -6.5642 -2.1723 0.0 0
M  V30 12 C -5.2656 -4.4155 0.0 0
M  V30 13 C -7.8747 -2.9043 0.0 0
M  V30 14 C -6.5761 -5.1475 0.0 0
M  V30 15 Cl -9.1852 -2.1487 0.0 0
M  V30 16 C -7.8865 -4.3919 0.0 0
M  V30 17 Cl -6.5879 -6.6351 0.0 0
M  V30 END ATOM
M  V30 BEGIN BOND
M  V30 1 1 1 2
M  V30 2 2 2 3
M  V30 3 1 2 4
M  V30 4 1 3 5
M  V30 5 1 3 6
M  V30 6 1 4 7
M  V30 7 2 4 8
M  V30 8 2 6 9
M  V30 9 1 9 10
M  V30 10 2 10 11
M  V30 11 1 10 12
M  V30 12 1 11 13
M  V30 13 2 12 14
M  V30 14 1 13 15
M  V30 15 2 13 16
M  V30 16 1 14 17
M  V30 17 1 8 9
M  V30 18 1 14 16
M  V30 END BOND
M  V30 END CTAB
M  END
>  <Molecule Name>
3,3',4,5,5'-Pentachlorobiphenyl

>  <Order (spectra)>
67

>  <NAME>
3,3',4,5,5'-Pentachlorobiphenyl

>  <Molecular Formula>
C12H5Cl5

>  <Monoisotopic Mass>
323.883385

>  <SMILES>
ClC1=CC(=CC(Cl)=C1)C1=CC(Cl)=C(Cl)C(Cl)=C1

>  <InChI>
InChI=1S/C12H5Cl5/c13-8-1-6(2-9(14)5-8)7-3-10(15)12(17)11(16)4-7/h1-5H

>  <InChIKey>
MXVAYAXIPRGORY-UHFFFAOYSA-N

>  <Kingdom>
Organic compounds

>  <Superclass>
Benzenoids

>  <Class>
Benzene and substituted derivatives

>  <Subclass>
Biphenyls and derivatives

>  <Parent Level 1>
Chlorinated biphenyls

>  <Parent Level 2>
Polychlorinated biphenyls

>  <Parent Level 3>


>  <cLogP>
6.3488

>  <cLogS>
-7.382

>  <Druglikeness>
-1.9661

>  <NP-class probability>
0.01

>  <SmilesFragFp 3>


>  <MS_READY_SMILES>
ClC1=CC(=CC(Cl)=C1)C1=CC(Cl)=C(Cl)C(Cl)=C1

>  <MS_READY_InChI>
InChI=1S/C12H5Cl5/c13-8-1-6(2-9(14)5-8)7-3-10(15)12(17)11(16)4-7/h1-5H

>  <QSAR_READY_SMILES>
ClC1=CC(=CC(Cl)=C1)C1=CC(Cl)=C(Cl)C(Cl)=C1

>  <QSAR_READY_InChI>
InChI=1S/C12H5Cl5/c13-8-1-6(2-9(14)5-8)7-3-10(15)12(17)11(16)4-7/h1-5H

>  <DTXSID>
DTXSID9074145

>  <DTXCID>
DTXCID3039662

>  <CASRN>
39635-33-1

>  <EXPOCAST_MEDIAN_EXPOSURE_PREDICTION_MG/KG-BW/DAY>
2.72E-12

>  <BIOCONCENTRATION_FACTOR_TEST_PRED>
32359.4

>  <BOILING_POINT_DEGC_TEST_PRED>
376.604

>  <48HR_DAPHNIA_LC50_MOL/L_TEST_PRED>
2.01E-08

>  <DENSITY_G/CM^3_TEST_PRED>
1.518

>  <DEVTOX_TEST_PRED>
0.429

>  <96HR_FATHEAD_MINNOW_MOL/L_TEST_PRED>
7.13E-08

>  <FLASH_POINT_DEGC_TEST_PRED>
178.834

>  <MELTING_POINT_DEGC_TEST_PRED>
117.63

>  <AMES_MUTAGENICITY_TEST_PRED>
-0.006

>  <ORAL_RAT_LD50_MOL/KG_TEST_PRED>
0.000277971

>  <SURFACE_TENSION_DYN/CM_TEST_PRED>
-

>  <THERMAL_CONDUCTIVITY_MW/(M*K)_TEST_PRED>
118.69

>  <TETRAHYMENA_PYRIFORMIS_IGC50_MOL/L_TEST_PRED>
3.18E-07

>  <VISCOSITY_CP_CP_TEST_PRED>
-

>  <VAPOR_PRESSURE_MMHG_TEST_PRED>
8.69E-06

>  <WATER_SOLUBILITY_MOL/L_TEST_PRED>
2.12E-08

>  <ATMOSPHERIC_HYDROXYLATION_RATE_(AOH)_CM3/MOLECULE*SEC_OPERA_PRED>
6.46E-13

>  <BIOCONCENTRATION_FACTOR_OPERA_PRED>
184565

>  <BIODEGRADATION_HALF_LIFE_DAYS_DAYS_OPERA_PRED>
16.0318

>  <BOILING_POINT_DEGC_OPERA_PRED>
366.747

>  <HENRYS_LAW_ATM-M3/MOLE_OPERA_PRED>
0.00007574

>  <OPERA_KM_DAYS_OPERA_PRED>
299.724

>  <OCTANOL_AIR_PARTITION_COEFF_LOGKOA_OPERA_PRED>
9.5756

>  <SOIL_ADSORPTION_COEFFICIENT_KOC_L/KG_OPERA_PRED>
159044

>  <OCTANOL_WATER_PARTITION_LOGP_OPERA_PRED>
6.74571

>  <MELTING_POINT_DEGC_OPERA_PRED>
101.191

>  <VAPOR_PRESSURE_MMHG_OPERA_PRED>
8.16E-06

>  <WATER_SOLUBILITY_MOL/L_OPERA_PRED>
1.79E-08

>  <Shape Index>
0.52941

>  <Molecular Flexibility>
0.3711

>  <Molecular Complexity>
0.68393

>  <Electronegative Atoms>
5

>  <Stereo Centers>
0

>  <Rotatable Bonds>
1

>  <Rings Closures>
2

>  <Aromatic Rings>
2

>  <Aromatic Atoms>
12

>  <Amides>
0

>  <Amines>
0

>  <Aromatic Nitrogens>
0

>  <Shape Index 2>
0.52941

>  <Molecular Flexibility 2>
0.3711

>  <Molecular Complexity 2>
0.68393

>  <Non-C/H Atoms>
5

>  <Electronegative Atoms 2>
5

>  <Stereo Centers 2>
0

>  <Rotatable Bonds 2>
1

>  <Rings Closures 2>
2

>  <Aromatic Rings 2>
2

>  <Aromatic Atoms 2>
12

>  <sp3-Atoms>
0

>  <Amides 2>
0

>  <Amines 2>
0

>  <Aromatic Nitrogens 2>
0

>  <Basic Nitrogens>
0

$$$$
2,3',4,4',5',6-Hexachlorobiphenyl
Actelion Java MolfileCreator 2.0

  0  0  0  0  0  0              0 V3000
M  V30 BEGIN CTAB
M  V30 COUNTS 18 19 0 0 0
M  V30 BEGIN ATOM
M  V30 1 Cl 0.0 0.0 0.0 0
M  V30 2 C -1.3105 -0.732 0.0 0
M  V30 3 C -2.6211 0.0236 0.0 0
M  V30 4 C -1.3223 -2.2197 0.0 0
M  V30 5 Cl -2.6329 1.5349 0.0 0
M  V30 6 C -3.9317 -0.7084 0.0 0
M  V30 7 Cl -0.0354 -2.9517 0.0 0
M  V30 8 C -2.6329 -2.9517 0.0 0
M  V30 9 C -3.9435 -2.196 0.0 0
M  V30 10 C -5.2541 -2.9281 0.0 0
M  V30 11 C -6.5646 -2.1724 0.0 0
M  V30 12 C -5.2659 -4.4158 0.0 0
M  V30 13 Cl -6.5764 -0.6611 0.0 0
M  V30 14 C -7.8752 -2.9045 0.0 0
M  V30 15 Cl -3.9789 -5.1596 0.0 0
M  V30 16 C -6.5764 -5.1478 0.0 0
M  V30 17 C -7.887 -4.3921 0.0 0
M  V30 18 Cl -9.1976 -5.1242 0.0 0
M  V30 END ATOM
M  V30 BEGIN BOND
M  V30 1 1 1 2
M  V30 2 2 2 3
M  V30 3 1 2 4
M  V30 4 1 3 5
M  V30 5 1 3 6
M  V30 6 1 4 7
M  V30 7 2 4 8
M  V30 8 2 6 9
M  V30 9 1 9 10
M  V30 10 2 10 11
M  V30 11 1 10 12
M  V30 12 1 11 13
M  V30 13 1 11 14
M  V30 14 1 12 15
M  V30 15 2 12 16
M  V30 16 2 14 17
M  V30 17 1 17 18
M  V30 18 1 8 9
M  V30 19 1 16 17
M  V30 END BOND
M  V30 END CTAB
M  END
>  <Molecule Name>
2,3',4,4',5',6-Hexachlorobiphenyl

>  <Order (spectra)>
68

>  <NAME>
2,3',4,4',5',6-Hexachlorobiphenyl

>  <Molecular Formula>
C12H4Cl6

>  <Monoisotopic Mass>
357.844412

>  <SMILES>
ClC1=CC(Cl)=C(C(Cl)=C1)C1=CC(Cl)=C(Cl)C(Cl)=C1

>  <InChI>
InChI=1S/C12H4Cl6/c13-6-3-7(14)11(8(15)4-6)5-1-9(16)12(18)10(17)2-5/h1-4H

>  <InChIKey>
PITHIPNORFGJPI-UHFFFAOYSA-N

>  <Kingdom>
Organic compounds

>  <Superclass>
Benzenoids

>  <Class>
Benzene and substituted derivatives

>  <Subclass>
Biphenyls and derivatives

>  <Parent Level 1>
Chlorinated biphenyls

>  <Parent Level 2>
Polychlorinated biphenyls

>  <Parent Level 3>


>  <cLogP>
6.9548

>  <cLogS>
-8.118

>  <Druglikeness>
-1.9661

>  <NP-class probability>
0.01

>  <SmilesFragFp 3>


>  <MS_READY_SMILES>
ClC1=CC(Cl)=C(C(Cl)=C1)C1=CC(Cl)=C(Cl)C(Cl)=C1

>  <MS_READY_InChI>
InChI=1S/C12H4Cl6/c13-6-3-7(14)11(8(15)4-6)5-1-9(16)12(18)10(17)2-5/h1-4H

>  <QSAR_READY_SMILES>
ClC1=CC(Cl)=C(C(Cl)=C1)C1=CC(Cl)=C(Cl)C(Cl)=C1

>  <QSAR_READY_InChI>
InChI=1S/C12H4Cl6/c13-6-3-7(14)11(8(15)4-6)5-1-9(16)12(18)10(17)2-5/h1-4H

>  <DTXSID>
DTXSID5074187

>  <DTXCID>
DTXCID4042591

>  <CASRN>
59291-65-5

>  <EXPOCAST_MEDIAN_EXPOSURE_PREDICTION_MG/KG-BW/DAY>
2.69E-12

>  <BIOCONCENTRATION_FACTOR_TEST_PRED>
93756.2

>  <BOILING_POINT_DEGC_TEST_PRED>
394.529

>  <48HR_DAPHNIA_LC50_MOL/L_TEST_PRED>
8.77E-09

>  <DENSITY_G/CM^3_TEST_PRED>
1.604

>  <DEVTOX_TEST_PRED>
0.448

>  <96HR_FATHEAD_MINNOW_MOL/L_TEST_PRED>
1.61E-08

>  <FLASH_POINT_DEGC_TEST_PRED>
187.25

>  <MELTING_POINT_DEGC_TEST_PRED>
119.121

>  <AMES_MUTAGENICITY_TEST_PRED>
-0.007

>  <ORAL_RAT_LD50_MOL/KG_TEST_PRED>
8.73E-05

>  <SURFACE_TENSION_DYN/CM_TEST_PRED>
-

>  <THERMAL_CONDUCTIVITY_MW/(M*K)_TEST_PRED>
119.835

>  <TETRAHYMENA_PYRIFORMIS_IGC50_MOL/L_TEST_PRED>
1.35E-07

>  <VISCOSITY_CP_CP_TEST_PRED>
-

>  <VAPOR_PRESSURE_MMHG_TEST_PRED>
2.52E-06

>  <WATER_SOLUBILITY_MOL/L_TEST_PRED>
3.37E-09

>  <ATMOSPHERIC_HYDROXYLATION_RATE_(AOH)_CM3/MOLECULE*SEC_OPERA_PRED>
6.60E-13

>  <BIOCONCENTRATION_FACTOR_OPERA_PRED>
376570

>  <BIODEGRADATION_HALF_LIFE_DAYS_DAYS_OPERA_PRED>
16.2704

>  <BOILING_POINT_DEGC_OPERA_PRED>
359.283

>  <HENRYS_LAW_ATM-M3/MOLE_OPERA_PRED>
0.000028602

>  <OPERA_KM_DAYS_OPERA_PRED>
343.029

>  <OCTANOL_AIR_PARTITION_COEFF_LOGKOA_OPERA_PRED>
9.74802

>  <SOIL_ADSORPTION_COEFFICIENT_KOC_L/KG_OPERA_PRED>
647829

>  <OCTANOL_WATER_PARTITION_LOGP_OPERA_PRED>
7.24979

>  <MELTING_POINT_DEGC_OPERA_PRED>
98.1343

>  <VAPOR_PRESSURE_MMHG_OPERA_PRED>
3.00E-06

>  <WATER_SOLUBILITY_MOL/L_OPERA_PRED>
7.03E-09

>  <Shape Index>
0.55556

>  <Molecular Flexibility>
0.36762

>  <Molecular Complexity>
0.73199

>  <Electronegative Atoms>
6

>  <Stereo Centers>
0

>  <Rotatable Bonds>
1

>  <Rings Closures>
2

>  <Aromatic Rings>
2

>  <Aromatic Atoms>
12

>  <Amides>
0

>  <Amines>
0

>  <Aromatic Nitrogens>
0

>  <Shape Index 2>
0.55556

>  <Molecular Flexibility 2>
0.36762

>  <Molecular Complexity 2>
0.73199

>  <Non-C/H Atoms>
6

>  <Electronegative Atoms 2>
6

>  <Stereo Centers 2>
0

>  <Rotatable Bonds 2>
1

>  <Rings Closures 2>
2

>  <Aromatic Rings 2>
2

>  <Aromatic Atoms 2>
12

>  <sp3-Atoms>
0

>  <Amides 2>
0

>  <Amines 2>
0

>  <Aromatic Nitrogens 2>
0

>  <Basic Nitrogens>
0

$$$$
2,3,3',4,5,6-Hexachlorobiphenyl
Actelion Java MolfileCreator 2.0

  0  0  0  0  0  0              0 V3000
M  V30 BEGIN CTAB
M  V30 COUNTS 18 19 0 0 0
M  V30 BEGIN ATOM
M  V30 1 Cl 0.0 0.0 0.0 0
M  V30 2 C -1.3096 -0.7315 0.0 0
M  V30 3 C -2.6192 0.0235 0.0 0
M  V30 4 C -1.3214 -2.2181 0.0 0
M  V30 5 Cl -2.631 1.5338 0.0 0
M  V30 6 C -3.9289 -0.7079 0.0 0
M  V30 7 Cl -0.0353 -2.9614 0.0 0
M  V30 8 C -2.631 -2.9496 0.0 0
M  V30 9 Cl -5.2385 0.0471 0.0 0
M  V30 10 C -3.9407 -2.1945 0.0 0
M  V30 11 Cl -2.6428 -4.4362 0.0 0
M  V30 12 C -5.2503 -2.926 0.0 0
M  V30 13 C -6.56 -2.1709 0.0 0
M  V30 14 C -5.2621 -4.4126 0.0 0
M  V30 15 C -7.8696 -2.9024 0.0 0
M  V30 16 C -6.5718 -5.1441 0.0 0
M  V30 17 Cl -9.1793 -2.1473 0.0 0
M  V30 18 C -7.8814 -4.389 0.0 0
M  V30 END ATOM
M  V30 BEGIN BOND
M  V30 1 1 1 2
M  V30 2 2 2 3
M  V30 3 1 2 4
M  V30 4 1 3 5
M  V30 5 1 3 6
M  V30 6 1 4 7
M  V30 7 2 4 8
M  V30 8 1 6 9
M  V30 9 2 6 10
M  V30 10 1 8 11
M  V30 11 1 10 12
M  V30 12 2 12 13
M  V30 13 1 12 14
M  V30 14 1 13 15
M  V30 15 2 14 16
M  V30 16 1 15 17
M  V30 17 2 15 18
M  V30 18 1 8 10
M  V30 19 1 16 18
M  V30 END BOND
M  V30 END CTAB
M  END
>  <Molecule Name>
2,3,3',4,5,6-Hexachlorobiphenyl

>  <Order (spectra)>
69

>  <NAME>
2,3,3',4,5,6-Hexachlorobiphenyl

>  <Molecular Formula>
C12H4Cl6

>  <Monoisotopic Mass>
357.844412

>  <SMILES>
ClC1=CC=CC(=C1)C1=C(Cl)C(Cl)=C(Cl)C(Cl)=C1Cl

>  <InChI>
InChI=1S/C12H4Cl6/c13-6-3-1-2-5(4-6)7-8(14)10(16)12(18)11(17)9(7)15/h1-4H

>  <InChIKey>
JHJMZCXLJXRCHK-UHFFFAOYSA-N

>  <Kingdom>
Organic compounds

>  <Superclass>
Benzenoids

>  <Class>
Benzene and substituted derivatives

>  <Subclass>
Biphenyls and derivatives

>  <Parent Level 1>
Chlorinated biphenyls

>  <Parent Level 2>
Polychlorinated biphenyls

>  <Parent Level 3>


>  <cLogP>
6.9548

>  <cLogS>
-8.118

>  <Druglikeness>
-1.9661

>  <NP-class probability>
0.01

>  <SmilesFragFp 3>


>  <MS_READY_SMILES>
ClC1=CC=CC(=C1)C1=C(Cl)C(Cl)=C(Cl)C(Cl)=C1Cl

>  <MS_READY_InChI>
InChI=1S/C12H4Cl6/c13-6-3-1-2-5(4-6)7-8(14)10(16)12(18)11(17)9(7)15/h1-4H

>  <QSAR_READY_SMILES>
ClC1=CC=CC(=C1)C1=C(Cl)C(Cl)=C(Cl)C(Cl)=C1Cl

>  <QSAR_READY_InChI>
InChI=1S/C12H4Cl6/c13-6-3-1-2-5(4-6)7-8(14)10(16)12(18)11(17)9(7)15/h1-4H

>  <DTXSID>
DTXSID20866044

>  <DTXCID>
DTXCID80814384

>  <CASRN>
41411-62-5

>  <EXPOCAST_MEDIAN_EXPOSURE_PREDICTION_MG/KG-BW/DAY>
9.87E-08

>  <BIOCONCENTRATION_FACTOR_TEST_PRED>
82794.2

>  <BOILING_POINT_DEGC_TEST_PRED>
394.435

>  <48HR_DAPHNIA_LC50_MOL/L_TEST_PRED>
1.16E-08

>  <DENSITY_G/CM^3_TEST_PRED>
1.606

>  <DEVTOX_TEST_PRED>
0.465

>  <96HR_FATHEAD_MINNOW_MOL/L_TEST_PRED>
2.08E-08

>  <FLASH_POINT_DEGC_TEST_PRED>
186.442

>  <MELTING_POINT_DEGC_TEST_PRED>
118.177

>  <AMES_MUTAGENICITY_TEST_PRED>
-0.011

>  <ORAL_RAT_LD50_MOL/KG_TEST_PRED>
9.23E-05

>  <SURFACE_TENSION_DYN/CM_TEST_PRED>
-

>  <THERMAL_CONDUCTIVITY_MW/(M*K)_TEST_PRED>
120.942

>  <TETRAHYMENA_PYRIFORMIS_IGC50_MOL/L_TEST_PRED>
1.58E-07

>  <VISCOSITY_CP_CP_TEST_PRED>
-

>  <VAPOR_PRESSURE_MMHG_TEST_PRED>
2.00E-06

>  <WATER_SOLUBILITY_MOL/L_TEST_PRED>
5.78E-09

>  <ATMOSPHERIC_HYDROXYLATION_RATE_(AOH)_CM3/MOLECULE*SEC_OPERA_PRED>
6.66E-13

>  <BIOCONCENTRATION_FACTOR_OPERA_PRED>
398523

>  <BIODEGRADATION_HALF_LIFE_DAYS_DAYS_OPERA_PRED>
13.1696

>  <BOILING_POINT_DEGC_OPERA_PRED>
359.7

>  <HENRYS_LAW_ATM-M3/MOLE_OPERA_PRED>
2.01E-05

>  <OPERA_KM_DAYS_OPERA_PRED>
212.821

>  <OCTANOL_AIR_PARTITION_COEFF_LOGKOA_OPERA_PRED>
9.8088

>  <SOIL_ADSORPTION_COEFFICIENT_KOC_L/KG_OPERA_PRED>
832473

>  <OCTANOL_WATER_PARTITION_LOGP_OPERA_PRED>
7.30037

>  <MELTING_POINT_DEGC_OPERA_PRED>
92.2347

>  <VAPOR_PRESSURE_MMHG_OPERA_PRED>
2.16E-06

>  <WATER_SOLUBILITY_MOL/L_OPERA_PRED>
8.74E-09

>  <Shape Index>
0.5

>  <Molecular Flexibility>
0.32073

>  <Molecular Complexity>
0.7679

>  <Electronegative Atoms>
6

>  <Stereo Centers>
0

>  <Rotatable Bonds>
1

>  <Rings Closures>
2

>  <Aromatic Rings>
2

>  <Aromatic Atoms>
12

>  <Amides>
0

>  <Amines>
0

>  <Aromatic Nitrogens>
0

>  <Shape Index 2>
0.5

>  <Molecular Flexibility 2>
0.32073

>  <Molecular Complexity 2>
0.7679

>  <Non-C/H Atoms>
6

>  <Electronegative Atoms 2>
6

>  <Stereo Centers 2>
0

>  <Rotatable Bonds 2>
1

>  <Rings Closures 2>
2

>  <Aromatic Rings 2>
2

>  <Aromatic Atoms 2>
12

>  <sp3-Atoms>
0

>  <Amides 2>
0

>  <Amines 2>
0

>  <Aromatic Nitrogens 2>
0

>  <Basic Nitrogens>
0

$$$$
2,3,3',4',5',6-Hexachlorobiphenyl
Actelion Java MolfileCreator 2.0

  0  0  0  0  0  0              0 V3000
M  V30 BEGIN CTAB
M  V30 COUNTS 18 19 0 0 0
M  V30 BEGIN ATOM
M  V30 1 Cl 0.0 0.0 0.0 0
M  V30 2 C -1.307 -0.73 0.0 0
M  V30 3 C -2.6141 0.0235 0.0 0
M  V30 4 C -1.3188 -2.2137 0.0 0
M  V30 5 C -3.9211 -0.7065 0.0 0
M  V30 6 C -2.6258 1.5307 0.0 0
M  V30 7 Cl -0.0353 -2.9555 0.0 0
M  V30 8 C -2.6258 -2.9438 0.0 0
M  V30 9 Cl -5.2282 0.0471 0.0 0
M  V30 10 C -3.9329 -2.1901 0.0 0
M  V30 11 C -1.3423 2.2843 0.0 0
M  V30 12 C -3.9329 2.2843 0.0 0
M  V30 13 C -1.3541 3.7916 0.0 0
M  V30 14 C -3.9447 3.7916 0.0 0
M  V30 15 Cl -0.0706 4.5452 0.0 0
M  V30 16 C -2.6612 4.557 0.0 0
M  V30 17 Cl -5.2517 4.5452 0.0 0
M  V30 18 Cl -2.6729 6.0642 0.0 0
M  V30 END ATOM
M  V30 BEGIN BOND
M  V30 1 1 1 2
M  V30 2 2 2 3
M  V30 3 1 2 4
M  V30 4 1 3 5
M  V30 5 1 3 6
M  V30 6 1 4 7
M  V30 7 2 4 8
M  V30 8 1 5 9
M  V30 9 2 5 10
M  V30 10 2 6 11
M  V30 11 1 6 12
M  V30 12 1 11 13
M  V30 13 2 12 14
M  V30 14 1 13 15
M  V30 15 2 13 16
M  V30 16 1 14 17
M  V30 17 1 16 18
M  V30 18 1 8 10
M  V30 19 1 14 16
M  V30 END BOND
M  V30 END CTAB
M  END
>  <Molecule Name>
2,3,3',4',5',6-Hexachlorobiphenyl

>  <Order (spectra)>
70

>  <NAME>
2,3,3',4',5',6-Hexachlorobiphenyl

>  <Molecular Formula>
C12H4Cl6

>  <Monoisotopic Mass>
357.844412

>  <SMILES>
ClC1=CC=C(Cl)C(=C1Cl)C1=CC(Cl)=C(Cl)C(Cl)=C1

>  <InChI>
InChI=1S/C12H4Cl6/c13-6-1-2-7(14)12(18)10(6)5-3-8(15)11(17)9(16)4-5/h1-4H

>  <InChIKey>
HAZQOLYHFUUJJN-UHFFFAOYSA-N

>  <Kingdom>
Organic compounds

>  <Superclass>
Benzenoids

>  <Class>
Benzene and substituted derivatives

>  <Subclass>
Biphenyls and derivatives

>  <Parent Level 1>
Chlorinated biphenyls

>  <Parent Level 2>
Polychlorinated biphenyls

>  <Parent Level 3>


>  <cLogP>
6.9548

>  <cLogS>
-8.118

>  <Druglikeness>
-1.9661

>  <NP-class probability>
0.01

>  <SmilesFragFp 3>


>  <MS_READY_SMILES>
ClC1=CC=C(Cl)C(=C1Cl)C1=CC(Cl)=C(Cl)C(Cl)=C1

>  <MS_READY_InChI>
InChI=1S/C12H4Cl6/c13-6-1-2-7(14)12(18)10(6)5-3-8(15)11(17)9(16)4-5/h1-4H

>  <QSAR_READY_SMILES>
ClC1=CC=C(Cl)C(=C1Cl)C1=CC(Cl)=C(Cl)C(Cl)=C1

>  <QSAR_READY_InChI>
InChI=1S/C12H4Cl6/c13-6-1-2-7(14)12(18)10(6)5-3-8(15)11(17)9(16)4-5/h1-4H

>  <DTXSID>
DTXSID3074234

>  <DTXCID>
DTXCID8047684

>  <CASRN>
74472-45-0

>  <EXPOCAST_MEDIAN_EXPOSURE_PREDICTION_MG/KG-BW/DAY>
2.49E-12

>  <BIOCONCENTRATION_FACTOR_TEST_PRED>
91833.3

>  <BOILING_POINT_DEGC_TEST_PRED>
396.667

>  <48HR_DAPHNIA_LC50_MOL/L_TEST_PRED>
8.61E-09

>  <DENSITY_G/CM^3_TEST_PRED>
1.605

>  <DEVTOX_TEST_PRED>
0.455

>  <96HR_FATHEAD_MINNOW_MOL/L_TEST_PRED>
1.51E-08

>  <FLASH_POINT_DEGC_TEST_PRED>
186.93

>  <MELTING_POINT_DEGC_TEST_PRED>
116.533

>  <AMES_MUTAGENICITY_TEST_PRED>
-0.019

>  <ORAL_RAT_LD50_MOL/KG_TEST_PRED>
6.61E-05

>  <SURFACE_TENSION_DYN/CM_TEST_PRED>
-

>  <THERMAL_CONDUCTIVITY_MW/(M*K)_TEST_PRED>
119.618

>  <TETRAHYMENA_PYRIFORMIS_IGC50_MOL/L_TEST_PRED>
1.27E-07

>  <VISCOSITY_CP_CP_TEST_PRED>
-

>  <VAPOR_PRESSURE_MMHG_TEST_PRED>
2.70E-06

>  <WATER_SOLUBILITY_MOL/L_TEST_PRED>
7.62E-09

>  <ATMOSPHERIC_HYDROXYLATION_RATE_(AOH)_CM3/MOLECULE*SEC_OPERA_PRED>
6.60E-13

>  <BIOCONCENTRATION_FACTOR_OPERA_PRED>
370946

>  <BIODEGRADATION_HALF_LIFE_DAYS_DAYS_OPERA_PRED>
24.187

>  <BOILING_POINT_DEGC_OPERA_PRED>
359.141

>  <HENRYS_LAW_ATM-M3/MOLE_OPERA_PRED>
2.48E-05

>  <OPERA_KM_DAYS_OPERA_PRED>
227.758

>  <OCTANOL_AIR_PARTITION_COEFF_LOGKOA_OPERA_PRED>
9.7986

>  <SOIL_ADSORPTION_COEFFICIENT_KOC_L/KG_OPERA_PRED>
833488

>  <OCTANOL_WATER_PARTITION_LOGP_OPERA_PRED>
7.24064

>  <MELTING_POINT_DEGC_OPERA_PRED>
96.5679

>  <VAPOR_PRESSURE_MMHG_OPERA_PRED>
3.70E-06

>  <WATER_SOLUBILITY_MOL/L_OPERA_PRED>
6.31E-09

>  <Shape Index>
0.5

>  <Molecular Flexibility>
0.36762

>  <Molecular Complexity>
0.75832

>  <Electronegative Atoms>
6

>  <Stereo Centers>
0

>  <Rotatable Bonds>
1

>  <Rings Closures>
2

>  <Aromatic Rings>
2

>  <Aromatic Atoms>
12

>  <Amides>
0

>  <Amines>
0

>  <Aromatic Nitrogens>
0

>  <Shape Index 2>
0.5

>  <Molecular Flexibility 2>
0.36762

>  <Molecular Complexity 2>
0.75832

>  <Non-C/H Atoms>
6

>  <Electronegative Atoms 2>
6

>  <Stereo Centers 2>
0

>  <Rotatable Bonds 2>
1

>  <Rings Closures 2>
2

>  <Aromatic Rings 2>
2

>  <Aromatic Atoms 2>
12

>  <sp3-Atoms>
0

>  <Amides 2>
0

>  <Amines 2>
0

>  <Aromatic Nitrogens 2>
0

>  <Basic Nitrogens>
0

$$$$
2,3,3',4',5,6-Hexachlorobiphenyl
Actelion Java MolfileCreator 2.0

  0  0  0  0  0  0              0 V3000
M  V30 BEGIN CTAB
M  V30 COUNTS 18 19 0 0 0
M  V30 BEGIN ATOM
M  V30 1 Cl 0.0 0.0 0.0 0
M  V30 2 C -1.3075 -0.7303 0.0 0
M  V30 3 C -2.6151 0.0235 0.0 0
M  V30 4 C -1.3193 -2.2146 0.0 0
M  V30 5 C -3.9227 -0.7068 0.0 0
M  V30 6 C -2.6269 1.5314 0.0 0
M  V30 7 Cl -0.0353 -2.9567 0.0 0
M  V30 8 C -2.6269 -2.945 0.0 0
M  V30 9 Cl -5.2303 0.0471 0.0 0
M  V30 10 C -3.9345 -2.191 0.0 0
M  V30 11 C -1.3429 2.2853 0.0 0
M  V30 12 C -3.9345 2.2853 0.0 0
M  V30 13 Cl -5.2421 -2.9214 0.0 0
M  V30 14 C -1.3547 3.7931 0.0 0
M  V30 15 C -3.9463 3.7931 0.0 0
M  V30 16 Cl -0.0706 4.5471 0.0 0
M  V30 17 C -2.6622 4.5588 0.0 0
M  V30 18 Cl -2.674 6.0667 0.0 0
M  V30 END ATOM
M  V30 BEGIN BOND
M  V30 1 1 1 2
M  V30 2 2 2 3
M  V30 3 1 2 4
M  V30 4 1 3 5
M  V30 5 1 3 6
M  V30 6 1 4 7
M  V30 7 2 4 8
M  V30 8 1 5 9
M  V30 9 2 5 10
M  V30 10 2 6 11
M  V30 11 1 6 12
M  V30 12 1 10 13
M  V30 13 1 11 14
M  V30 14 2 12 15
M  V30 15 1 14 16
M  V30 16 2 14 17
M  V30 17 1 17 18
M  V30 18 1 8 10
M  V30 19 1 15 17
M  V30 END BOND
M  V30 END CTAB
M  END
>  <Molecule Name>
2,3,3',4',5,6-Hexachlorobiphenyl

>  <Order (spectra)>
71

>  <NAME>
2,3,3',4',5,6-Hexachlorobiphenyl

>  <Molecular Formula>
C12H4Cl6

>  <Monoisotopic Mass>
357.844412

>  <SMILES>
ClC1=CC=C(C=C1Cl)C1=C(Cl)C(Cl)=CC(Cl)=C1Cl

>  <InChI>
InChI=1S/C12H4Cl6/c13-6-2-1-5(3-7(6)14)10-11(17)8(15)4-9(16)12(10)18/h1-4H

>  <InChIKey>
ZAGRQXMWMRUYRB-UHFFFAOYSA-N

>  <Kingdom>
Organic compounds

>  <Superclass>
Benzenoids

>  <Class>
Benzene and substituted derivatives

>  <Subclass>
Biphenyls and derivatives

>  <Parent Level 1>
Chlorinated biphenyls

>  <Parent Level 2>
Polychlorinated biphenyls

>  <Parent Level 3>


>  <cLogP>
6.9548

>  <cLogS>
-8.118

>  <Druglikeness>
-1.9661

>  <NP-class probability>
0.01

>  <SmilesFragFp 3>


>  <MS_READY_SMILES>
ClC1=CC=C(C=C1Cl)C1=C(Cl)C(Cl)=CC(Cl)=C1Cl

>  <MS_READY_InChI>
InChI=1S/C12H4Cl6/c13-6-2-1-5(3-7(6)14)10-11(17)8(15)4-9(16)12(10)18/h1-4H

>  <QSAR_READY_SMILES>
ClC1=CC=C(C=C1Cl)C1=C(Cl)C(Cl)=CC(Cl)=C1Cl

>  <QSAR_READY_InChI>
InChI=1S/C12H4Cl6/c13-6-2-1-5(3-7(6)14)10-11(17)8(15)4-9(16)12(10)18/h1-4H

>  <DTXSID>
DTXSID8074233

>  <DTXCID>
DTXCID3047683

>  <CASRN>
74472-44-9

>  <EXPOCAST_MEDIAN_EXPOSURE_PREDICTION_MG/KG-BW/DAY>
2.77E-12

>  <BIOCONCENTRATION_FACTOR_TEST_PRED>
78162.8

>  <BOILING_POINT_DEGC_TEST_PRED>
397.838

>  <48HR_DAPHNIA_LC50_MOL/L_TEST_PRED>
9.14E-09

>  <DENSITY_G/CM^3_TEST_PRED>
1.605

>  <DEVTOX_TEST_PRED>
0.452

>  <96HR_FATHEAD_MINNOW_MOL/L_TEST_PRED>
1.53E-08

>  <FLASH_POINT_DEGC_TEST_PRED>
187.246

>  <MELTING_POINT_DEGC_TEST_PRED>
118.124

>  <AMES_MUTAGENICITY_TEST_PRED>
-0.012

>  <ORAL_RAT_LD50_MOL/KG_TEST_PRED>
0.000065013

>  <SURFACE_TENSION_DYN/CM_TEST_PRED>
-

>  <THERMAL_CONDUCTIVITY_MW/(M*K)_TEST_PRED>
120.22

>  <TETRAHYMENA_PYRIFORMIS_IGC50_MOL/L_TEST_PRED>
1.30E-07

>  <VISCOSITY_CP_CP_TEST_PRED>
-

>  <VAPOR_PRESSURE_MMHG_TEST_PRED>
2.65E-06

>  <WATER_SOLUBILITY_MOL/L_TEST_PRED>
4.53E-09

>  <ATMOSPHERIC_HYDROXYLATION_RATE_(AOH)_CM3/MOLECULE*SEC_OPERA_PRED>
6.61E-13

>  <BIOCONCENTRATION_FACTOR_OPERA_PRED>
463303

>  <BIODEGRADATION_HALF_LIFE_DAYS_DAYS_OPERA_PRED>
16.2179

>  <BOILING_POINT_DEGC_OPERA_PRED>
359.141

>  <HENRYS_LAW_ATM-M3/MOLE_OPERA_PRED>
1.65E-05

>  <OPERA_KM_DAYS_OPERA_PRED>
403.225

>  <OCTANOL_AIR_PARTITION_COEFF_LOGKOA_OPERA_PRED>
9.7986

>  <SOIL_ADSORPTION_COEFFICIENT_KOC_L/KG_OPERA_PRED>
800461

>  <OCTANOL_WATER_PARTITION_LOGP_OPERA_PRED>
7.20947

>  <MELTING_POINT_DEGC_OPERA_PRED>
95.4546

>  <VAPOR_PRESSURE_MMHG_OPERA_PRED>
3.58E-06

>  <WATER_SOLUBILITY_MOL/L_OPERA_PRED>
4.12E-09

>  <Shape Index>
0.5

>  <Molecular Flexibility>
0.34516

>  <Molecular Complexity>
0.77436

>  <Electronegative Atoms>
6

>  <Stereo Centers>
0

>  <Rotatable Bonds>
1

>  <Rings Closures>
2

>  <Aromatic Rings>
2

>  <Aromatic Atoms>
12

>  <Amides>
0

>  <Amines>
0

>  <Aromatic Nitrogens>
0

>  <Shape Index 2>
0.5

>  <Molecular Flexibility 2>
0.34516

>  <Molecular Complexity 2>
0.77436

>  <Non-C/H Atoms>
6

>  <Electronegative Atoms 2>
6

>  <Stereo Centers 2>
0

>  <Rotatable Bonds 2>
1

>  <Rings Closures 2>
2

>  <Aromatic Rings 2>
2

>  <Aromatic Atoms 2>
12

>  <sp3-Atoms>
0

>  <Amides 2>
0

>  <Amines 2>
0

>  <Aromatic Nitrogens 2>
0

>  <Basic Nitrogens>
0

$$$$
2,3,3',4',5,5',6-Heptachlorobiphenyl
Actelion Java MolfileCreator 2.0

  0  0  0  0  0  0              0 V3000
M  V30 BEGIN CTAB
M  V30 COUNTS 19 20 0 0 0
M  V30 BEGIN ATOM
M  V30 1 Cl 0.0 0.0 0.0 0
M  V30 2 C -1.3071 -0.7301 0.0 0
M  V30 3 C -2.6143 0.0235 0.0 0
M  V30 4 C -1.3189 -2.2139 0.0 0
M  V30 5 C -3.9215 -0.7065 0.0 0
M  V30 6 C -2.6261 1.5309 0.0 0
M  V30 7 Cl -0.0353 -2.9558 0.0 0
M  V30 8 C -2.6261 -2.944 0.0 0
M  V30 9 Cl -5.2287 0.0471 0.0 0
M  V30 10 C -3.9333 -2.1904 0.0 0
M  V30 11 C -1.3425 2.2846 0.0 0
M  V30 12 C -3.9333 2.2846 0.0 0
M  V30 13 Cl -5.2404 -2.9205 0.0 0
M  V30 14 C -1.3542 3.7919 0.0 0
M  V30 15 C -3.945 3.7919 0.0 0
M  V30 16 Cl -0.0706 4.5456 0.0 0
M  V30 17 C -2.6614 4.5574 0.0 0
M  V30 18 Cl -5.2522 4.5456 0.0 0
M  V30 19 Cl -2.6732 6.0648 0.0 0
M  V30 END ATOM
M  V30 BEGIN BOND
M  V30 1 1 1 2
M  V30 2 2 2 3
M  V30 3 1 2 4
M  V30 4 1 3 5
M  V30 5 1 3 6
M  V30 6 1 4 7
M  V30 7 2 4 8
M  V30 8 1 5 9
M  V30 9 2 5 10
M  V30 10 2 6 11
M  V30 11 1 6 12
M  V30 12 1 10 13
M  V30 13 1 11 14
M  V30 14 2 12 15
M  V30 15 1 14 16
M  V30 16 2 14 17
M  V30 17 1 15 18
M  V30 18 1 17 19
M  V30 19 1 8 10
M  V30 20 1 15 17
M  V30 END BOND
M  V30 END CTAB
M  END
>  <Molecule Name>
2,3,3',4',5,5',6-Heptachlorobiphenyl

>  <Order (spectra)>
72

>  <NAME>
2,3,3',4',5,5',6-Heptachlorobiphenyl

>  <Molecular Formula>
C12H3Cl7

>  <Monoisotopic Mass>
391.805439

>  <SMILES>
ClC1=CC(=CC(Cl)=C1Cl)C1=C(Cl)C(Cl)=CC(Cl)=C1Cl

>  <InChI>
InChI=1S/C12H3Cl7/c13-5-1-4(2-6(14)10(5)17)9-11(18)7(15)3-8(16)12(9)19/h1-3H

>  <InChIKey>
SSTJUBQGYXNFFP-UHFFFAOYSA-N

>  <Kingdom>
Organic compounds

>  <Superclass>
Benzenoids

>  <Class>
Benzene and substituted derivatives

>  <Subclass>
Biphenyls and derivatives

>  <Parent Level 1>
Chlorinated biphenyls

>  <Parent Level 2>
Polychlorinated biphenyls

>  <Parent Level 3>


>  <cLogP>
7.5608

>  <cLogS>
-8.854

>  <Druglikeness>
-1.9661

>  <NP-class probability>
0.01

>  <SmilesFragFp 3>


>  <MS_READY_SMILES>
ClC1=CC(=CC(Cl)=C1Cl)C1=C(Cl)C(Cl)=CC(Cl)=C1Cl

>  <MS_READY_InChI>
InChI=1S/C12H3Cl7/c13-5-1-4(2-6(14)10(5)17)9-11(18)7(15)3-8(16)12(9)19/h1-3H

>  <QSAR_READY_SMILES>
ClC1=CC(=CC(Cl)=C1Cl)C1=C(Cl)C(Cl)=CC(Cl)=C1Cl

>  <QSAR_READY_InChI>
InChI=1S/C12H3Cl7/c13-5-1-4(2-6(14)10(5)17)9-11(18)7(15)3-8(16)12(9)19/h1-3H

>  <DTXSID>
DTXSID30867845

>  <DTXCID>
DTXCID20815996

>  <CASRN>
69782-91-8

>  <EXPOCAST_MEDIAN_EXPOSURE_PREDICTION_MG/KG-BW/DAY>
9.21E-08

>  <BIOCONCENTRATION_FACTOR_TEST_PRED>
139316

>  <BOILING_POINT_DEGC_TEST_PRED>
427.909

>  <48HR_DAPHNIA_LC50_MOL/L_TEST_PRED>
4.50E-09

>  <DENSITY_G/CM^3_TEST_PRED>
1.756

>  <DEVTOX_TEST_PRED>
0.43

>  <96HR_FATHEAD_MINNOW_MOL/L_TEST_PRED>
5.04E-09

>  <FLASH_POINT_DEGC_TEST_PRED>
193.22

>  <MELTING_POINT_DEGC_TEST_PRED>
132.497

>  <AMES_MUTAGENICITY_TEST_PRED>
-0.006

>  <ORAL_RAT_LD50_MOL/KG_TEST_PRED>
2.16E-05

>  <SURFACE_TENSION_DYN/CM_TEST_PRED>
-

>  <THERMAL_CONDUCTIVITY_MW/(M*K)_TEST_PRED>
116.383

>  <TETRAHYMENA_PYRIFORMIS_IGC50_MOL/L_TEST_PRED>
2.96E-07

>  <VISCOSITY_CP_CP_TEST_PRED>
-

>  <VAPOR_PRESSURE_MMHG_TEST_PRED>
5.38E-07

>  <WATER_SOLUBILITY_MOL/L_TEST_PRED>
1.22E-09

>  <ATMOSPHERIC_HYDROXYLATION_RATE_(AOH)_CM3/MOLECULE*SEC_OPERA_PRED>
6.80E-13

>  <BIOCONCENTRATION_FACTOR_OPERA_PRED>
450719

>  <BIODEGRADATION_HALF_LIFE_DAYS_DAYS_OPERA_PRED>
37.5938

>  <BOILING_POINT_DEGC_OPERA_PRED>
403.963

>  <HENRYS_LAW_ATM-M3/MOLE_OPERA_PRED>
5.80E-06

>  <OPERA_KM_DAYS_OPERA_PRED>
311.243

>  <OCTANOL_AIR_PARTITION_COEFF_LOGKOA_OPERA_PRED>
9.93723

>  <SOIL_ADSORPTION_COEFFICIENT_KOC_L/KG_OPERA_PRED>
872925

>  <OCTANOL_WATER_PARTITION_LOGP_OPERA_PRED>
7.55255

>  <MELTING_POINT_DEGC_OPERA_PRED>
122.61

>  <VAPOR_PRESSURE_MMHG_OPERA_PRED>
6.89E-07

>  <WATER_SOLUBILITY_MOL/L_OPERA_PRED>
2.44E-09

>  <Shape Index>
0.47368

>  <Molecular Flexibility>
0.35566

>  <Molecular Complexity>
0.78055

>  <Electronegative Atoms>
7

>  <Stereo Centers>
0

>  <Rotatable Bonds>
1

>  <Rings Closures>
2

>  <Aromatic Rings>
2

>  <Aromatic Atoms>
12

>  <Amides>
0

>  <Amines>
0

>  <Aromatic Nitrogens>
0

>  <Shape Index 2>
0.47368

>  <Molecular Flexibility 2>
0.35566

>  <Molecular Complexity 2>
0.78055

>  <Non-C/H Atoms>
7

>  <Electronegative Atoms 2>
7

>  <Stereo Centers 2>
0

>  <Rotatable Bonds 2>
1

>  <Rings Closures 2>
2

>  <Aromatic Rings 2>
2

>  <Aromatic Atoms 2>
12

>  <sp3-Atoms>
0

>  <Amides 2>
0

>  <Amines 2>
0

>  <Aromatic Nitrogens 2>
0

>  <Basic Nitrogens>
0

$$$$
Bifenthrin
Actelion Java MolfileCreator 2.0

  0  0  0  0  0  0              0 V3000
M  V30 BEGIN CTAB
M  V30 COUNTS 29 31 0 0 0
M  V30 BEGIN ATOM
M  V30 1 Cl 0.0 0.0 0.0 0
M  V30 2 C 1.2835 -0.73 0.0 0
M  V30 3 C 2.567 0.0235 0.0 0
M  V30 4 C 1.2717 -2.2137 0.0 0
M  V30 5 C 2.5552 1.5307 0.0 0 CFG=2
M  V30 6 F -0.2355 -2.2019 0.0 0
M  V30 7 F 1.2599 -3.6974 0.0 0
M  V30 8 F 2.7554 -2.2019 0.0 0
M  V30 9 C 3.297 2.8378 0.0 0
M  V30 10 C 1.8016 2.8378 0.0 0 CFG=2
M  V30 11 C 4.7807 2.8496 0.0 0
M  V30 12 C 4.0389 4.1449 0.0 0
M  V30 13 C 0.4945 3.5914 0.0 0
M  V30 14 O 0.4827 5.0987 0.0 0
M  V30 15 O -0.8124 2.8496 0.0 0
M  V30 16 C -2.1195 3.6032 0.0 0
M  V30 17 C -3.4266 2.8614 0.0 0
M  V30 18 C -4.7336 3.615 0.0 0
M  V30 19 C -3.4383 1.3777 0.0 0
M  V30 20 C -6.0407 2.8731 0.0 0
M  V30 21 C -4.7454 5.1222 0.0 0
M  V30 22 C -4.7454 0.6358 0.0 0
M  V30 23 C -7.3478 3.6267 0.0 0
M  V30 24 C -6.0525 1.3894 0.0 0
M  V30 25 C -7.3595 5.134 0.0 0
M  V30 26 C -8.6548 2.8849 0.0 0
M  V30 27 C -8.6666 5.8876 0.0 0
M  V30 28 C -9.9619 3.6385 0.0 0
M  V30 29 C -9.9736 5.1458 0.0 0
M  V30 END ATOM
M  V30 BEGIN BOND
M  V30 1 1 1 2
M  V30 2 2 2 3
M  V30 3 1 2 4
M  V30 4 1 5 3 CFG=1
M  V30 5 1 4 6
M  V30 6 1 4 7
M  V30 7 1 4 8
M  V30 8 1 5 9
M  V30 9 1 5 10
M  V30 10 1 9 11
M  V30 11 1 9 12
M  V30 12 1 10 13 CFG=1
M  V30 13 2 13 14
M  V30 14 1 13 15
M  V30 15 1 15 16
M  V30 16 1 16 17
M  V30 17 2 17 18
M  V30 18 1 17 19
M  V30 19 1 18 20
M  V30 20 1 18 21
M  V30 21 2 19 22
M  V30 22 1 20 23
M  V30 23 2 20 24
M  V30 24 2 23 25
M  V30 25 1 23 26
M  V30 26 1 25 27
M  V30 27 2 26 28
M  V30 28 2 27 29
M  V30 29 1 9 10
M  V30 30 1 22 24
M  V30 31 1 28 29
M  V30 END BOND
M  V30 BEGIN COLLECTION
M  V30 MDLV30/STEABS ATOMS=(2 5 10)
M  V30 END COLLECTION
M  V30 END CTAB
M  END
>  <Molecule Name>
Bifenthrin

>  <Order (spectra)>
78

>  <NAME>
Bifenthrin

>  <Molecular Formula>
C23H22O2ClF3

>  <Monoisotopic Mass>
422.126041

>  <SMILES>
CC1=C(C=CC=C1COC(=O)[C@@H]1[C@H](\C=C(/Cl)C(F)(F)F)C1(C)C)C1=CC=CC=C1

>  <InChI>
InChI=1S/C23H22ClF3O2/c1-14-16(10-7-11-17(14)15-8-5-4-6-9-15)13-29-21(28)20-18(22(20,2)3)12-19(24)23(25,26)27/h4-12,18,20H,13H2,1-3H3/t18-,20+/m0/s1

>  <InChIKey>
OMFRMAHOUUJSGP-IRHGGOMRSA-N

>  <Kingdom>
Organic compounds

>  <Superclass>
Benzenoids

>  <Class>
Benzene and substituted derivatives

>  <Subclass>
Biphenyls and derivatives

>  <Parent Level 1>
Biphenyls and derivatives

>  <Parent Level 2>


>  <Parent Level 3>


>  <cLogP>
6.3407

>  <cLogS>
-7.096

>  <Druglikeness>
-7.1197

>  <NP-class probability>
0.27

>  <SmilesFragFp 3>


>  <MS_READY_SMILES>
CC1=C(COC(=O)C2C(C=C(Cl)C(F)(F)F)C2(C)C)C=CC=C1C1=CC=CC=C1

>  <MS_READY_InChI>
InChI=1S/C23H22ClF3O2/c1-14-16(10-7-11-17(14)15-8-5-4-6-9-15)13-29-21(28)20-18(22(20,2)3)12-19(24)23(25,26)27/h4-12,18,20H,13H2,1-3H3

>  <QSAR_READY_SMILES>
CC1=C(COC(=O)C2C(C=C(Cl)C(F)(F)F)C2(C)C)C=CC=C1C1=CC=CC=C1

>  <QSAR_READY_InChI>
InChI=1S/C23H22ClF3O2/c1-14-16(10-7-11-17(14)15-8-5-4-6-9-15)13-29-21(28)20-18(22(20,2)3)12-19(24)23(25,26)27/h4-12,18,20H,13H2,1-3H3

>  <DTXSID>
DTXSID20891316

>  <DTXCID>
DTXCID001477606

>  <CASRN>
439680-76-9

>  <EXPOCAST_MEDIAN_EXPOSURE_PREDICTION_MG/KG-BW/DAY>
-

>  <BIOCONCENTRATION_FACTOR_TEST_PRED>
-

>  <BOILING_POINT_DEGC_TEST_PRED>
-

>  <48HR_DAPHNIA_LC50_MOL/L_TEST_PRED>
-

>  <DENSITY_G/CM^3_TEST_PRED>
-

>  <DEVTOX_TEST_PRED>
-

>  <96HR_FATHEAD_MINNOW_MOL/L_TEST_PRED>
-

>  <FLASH_POINT_DEGC_TEST_PRED>
-

>  <MELTING_POINT_DEGC_TEST_PRED>
-

>  <AMES_MUTAGENICITY_TEST_PRED>
-

>  <ORAL_RAT_LD50_MOL/KG_TEST_PRED>
-

>  <SURFACE_TENSION_DYN/CM_TEST_PRED>
-

>  <THERMAL_CONDUCTIVITY_MW/(M*K)_TEST_PRED>
-

>  <TETRAHYMENA_PYRIFORMIS_IGC50_MOL/L_TEST_PRED>
-

>  <VISCOSITY_CP_CP_TEST_PRED>
-

>  <VAPOR_PRESSURE_MMHG_TEST_PRED>
-

>  <WATER_SOLUBILITY_MOL/L_TEST_PRED>
-

>  <ATMOSPHERIC_HYDROXYLATION_RATE_(AOH)_CM3/MOLECULE*SEC_OPERA_PRED>
3.32E-11

>  <BIOCONCENTRATION_FACTOR_OPERA_PRED>
4990.65

>  <BIODEGRADATION_HALF_LIFE_DAYS_DAYS_OPERA_PRED>
3.54377

>  <BOILING_POINT_DEGC_OPERA_PRED>
370.919

>  <HENRYS_LAW_ATM-M3/MOLE_OPERA_PRED>
4.85E-08

>  <OPERA_KM_DAYS_OPERA_PRED>
3.64746

>  <OCTANOL_AIR_PARTITION_COEFF_LOGKOA_OPERA_PRED>
10.4688

>  <SOIL_ADSORPTION_COEFFICIENT_KOC_L/KG_OPERA_PRED>
223091

>  <OCTANOL_WATER_PARTITION_LOGP_OPERA_PRED>
6.18611

>  <MELTING_POINT_DEGC_OPERA_PRED>
68.9916

>  <VAPOR_PRESSURE_MMHG_OPERA_PRED>
1.79E-07

>  <WATER_SOLUBILITY_MOL/L_OPERA_PRED>
5.06E-08

>  <Shape Index>
0.55172

>  <Molecular Flexibility>
0.3964

>  <Molecular Complexity>
0.80135

>  <Electronegative Atoms>
6

>  <Stereo Centers>
2

>  <Rotatable Bonds>
7

>  <Rings Closures>
3

>  <Aromatic Rings>
2

>  <Aromatic Atoms>
12

>  <Amides>
0

>  <Amines>
0

>  <Aromatic Nitrogens>
0

>  <Shape Index 2>
0.55172

>  <Molecular Flexibility 2>
0.3964

>  <Molecular Complexity 2>
0.80135

>  <Non-C/H Atoms>
6

>  <Electronegative Atoms 2>
6

>  <Stereo Centers 2>
2

>  <Rotatable Bonds 2>
7

>  <Rings Closures 2>
3

>  <Aromatic Rings 2>
2

>  <Aromatic Atoms 2>
12

>  <sp3-Atoms>
9

>  <Amides 2>
0

>  <Amines 2>
0

>  <Aromatic Nitrogens 2>
0

>  <Basic Nitrogens>
0

$$$$
Fenpropathrin
Actelion Java MolfileCreator 2.0

  0  0  0  0  0  0              0 V3000
M  V30 BEGIN CTAB
M  V30 COUNTS 26 28 0 0 0
M  V30 BEGIN ATOM
M  V30 1 O 0.0 0.0 0.0 0
M  V30 2 C -0.0118 1.5132 0.0 0
M  V30 3 O 1.2768 2.2699 0.0 0
M  V30 4 C -1.3241 2.2699 0.0 0
M  V30 5 C 2.5654 1.525 0.0 0 CFG=2
M  V30 6 C -2.0807 3.5822 0.0 0
M  V30 7 C -2.8373 2.2817 0.0 0
M  V30 8 C 3.8541 2.2817 0.0 0
M  V30 9 C 2.5536 0.0354 0.0 0
M  V30 10 C -1.3359 4.8944 0.0 0
M  V30 11 C -2.8373 4.8944 0.0 0
M  V30 12 C -4.3506 2.2935 0.0 0
M  V30 13 C -3.594 0.993 0.0 0
M  V30 14 N 5.1427 3.0383 0.0 0
M  V30 15 C 1.2413 -0.7093 0.0 0
M  V30 16 C 3.8422 -0.7093 0.0 0
M  V30 17 C 1.2295 -2.1989 0.0 0
M  V30 18 C 3.8304 -2.1989 0.0 0
M  V30 19 O -0.0827 -2.9437 0.0 0
M  V30 20 C 2.5181 -2.9437 0.0 0
M  V30 21 C -0.0945 -4.4334 0.0 0
M  V30 22 C -1.4068 -5.1782 0.0 0
M  V30 23 C 1.194 -5.1782 0.0 0
M  V30 24 C -1.4186 -6.6678 0.0 0
M  V30 25 C 1.1822 -6.6678 0.0 0
M  V30 26 C -0.13 -7.4126 0.0 0
M  V30 END ATOM
M  V30 BEGIN BOND
M  V30 1 2 1 2
M  V30 2 1 2 3
M  V30 3 1 2 4
M  V30 4 1 5 3 CFG=3
M  V30 5 1 4 6
M  V30 6 1 4 7
M  V30 7 1 5 8
M  V30 8 1 5 9
M  V30 9 1 6 10
M  V30 10 1 6 11
M  V30 11 1 7 12
M  V30 12 1 7 13
M  V30 13 3 8 14
M  V30 14 2 9 15
M  V30 15 1 9 16
M  V30 16 1 15 17
M  V30 17 2 16 18
M  V30 18 1 17 19
M  V30 19 2 17 20
M  V30 20 1 19 21
M  V30 21 2 21 22
M  V30 22 1 21 23
M  V30 23 1 22 24
M  V30 24 2 23 25
M  V30 25 2 24 26
M  V30 26 1 6 7
M  V30 27 1 18 20
M  V30 28 1 25 26
M  V30 END BOND
M  V30 BEGIN COLLECTION
M  V30 MDLV30/STERAC1 ATOMS=(1 5)
M  V30 END COLLECTION
M  V30 END CTAB
M  END
>  <Molecule Name>
Fenpropathrin

>  <Order (spectra)>
79

>  <NAME>
Fenpropathrin

>  <Molecular Formula>
C22H23NO3

>  <Monoisotopic Mass>
349.167794

>  <SMILES>
CC1(C)C(C(=O)OC(C#N)C2=CC=CC(OC3=CC=CC=C3)=C2)C1(C)C

>  <InChI>
InChI=1S/C22H23NO3/c1-21(2)19(22(21,3)4)20(24)26-18(14-23)15-9-8-12-17(13-15)25-16-10-6-5-7-11-16/h5-13,18-19H,1-4H3/t18-/m1/s1

>  <InChIKey>
XQUXKZZNEFRCAW-UHFFFAOYSA-N

>  <Kingdom>
Organic compounds

>  <Superclass>
Benzenoids

>  <Class>
Benzene and substituted derivatives

>  <Subclass>
Diphenylethers

>  <Parent Level 1>
Diphenylethers

>  <Parent Level 2>


>  <Parent Level 3>


>  <cLogP>
3.9945

>  <cLogS>
-5.616

>  <Druglikeness>
-11.126

>  <NP-class probability>
0.26

>  <SmilesFragFp 3>


>  <MS_READY_SMILES>
CC1(C)C(C(=O)OC(C#N)C2=CC=CC(OC3=CC=CC=C3)=C2)C1(C)C

>  <MS_READY_InChI>
InChI=1S/C22H23NO3/c1-21(2)19(22(21,3)4)20(24)26-18(14-23)15-9-8-12-17(13-15)25-16-10-6-5-7-11-16/h5-13,18-19H,1-4H3/t18-/m1/s1

>  <QSAR_READY_SMILES>
CC1(C)C(C(=O)OC(C#N)C2=CC=CC(OC3=CC=CC=C3)=C2)C1(C)C

>  <QSAR_READY_InChI>
InChI=1S/C22H23NO3/c1-21(2)19(22(21,3)4)20(24)26-18(14-23)15-9-8-12-17(13-15)25-16-10-6-5-7-11-16/h5-13,18-19H,1-4H3/t18-/m1/s1

>  <DTXSID>
DTXSID0024002

>  <DTXCID>
DTXCID204002

>  <CASRN>
39515-41-8

>  <EXPOCAST_MEDIAN_EXPOSURE_PREDICTION_MG/KG-BW/DAY>
9.14E-06

>  <BIOCONCENTRATION_FACTOR_TEST_PRED>
744.732

>  <BOILING_POINT_DEGC_TEST_PRED>
414.903

>  <48HR_DAPHNIA_LC50_MOL/L_TEST_PRED>
3.66E-09

>  <DENSITY_G/CM^3_TEST_PRED>
1.135

>  <DEVTOX_TEST_PRED>
0.825

>  <96HR_FATHEAD_MINNOW_MOL/L_TEST_PRED>
6.67E-08

>  <FLASH_POINT_DEGC_TEST_PRED>
222.966

>  <MELTING_POINT_DEGC_TEST_PRED>
72.222

>  <AMES_MUTAGENICITY_TEST_PRED>
0.248

>  <ORAL_RAT_LD50_MOL/KG_TEST_PRED>
0.000474242

>  <SURFACE_TENSION_DYN/CM_TEST_PRED>
-

>  <THERMAL_CONDUCTIVITY_MW/(M*K)_TEST_PRED>
-

>  <TETRAHYMENA_PYRIFORMIS_IGC50_MOL/L_TEST_PRED>
0.000012106

>  <VISCOSITY_CP_CP_TEST_PRED>
-

>  <VAPOR_PRESSURE_MMHG_TEST_PRED>
1.10E-08

>  <WATER_SOLUBILITY_MOL/L_TEST_PRED>
2.28E-07

>  <ATMOSPHERIC_HYDROXYLATION_RATE_(AOH)_CM3/MOLECULE*SEC_OPERA_PRED>
2.49E-11

>  <BIOCONCENTRATION_FACTOR_OPERA_PRED>
217.706

>  <BIODEGRADATION_HALF_LIFE_DAYS_DAYS_OPERA_PRED>
3.5427

>  <BOILING_POINT_DEGC_OPERA_PRED>
370.489

>  <HENRYS_LAW_ATM-M3/MOLE_OPERA_PRED>
1.07E-07

>  <OPERA_KM_DAYS_OPERA_PRED>
1.29438

>  <OCTANOL_AIR_PARTITION_COEFF_LOGKOA_OPERA_PRED>
10.4579

>  <SOIL_ADSORPTION_COEFFICIENT_KOC_L/KG_OPERA_PRED>
17263.6

>  <OCTANOL_WATER_PARTITION_LOGP_OPERA_PRED>
5.69778

>  <MELTING_POINT_DEGC_OPERA_PRED>
47.0761

>  <VAPOR_PRESSURE_MMHG_OPERA_PRED>
3.45E-06

>  <WATER_SOLUBILITY_MOL/L_OPERA_PRED>
2.12E-07

>  <Shape Index>
0.53846

>  <Molecular Flexibility>
0.51191

>  <Molecular Complexity>
0.7268

>  <Electronegative Atoms>
4

>  <Stereo Centers>
1

>  <Rotatable Bonds>
6

>  <Rings Closures>
3

>  <Aromatic Rings>
2

>  <Aromatic Atoms>
12

>  <Amides>
0

>  <Amines>
0

>  <Aromatic Nitrogens>
0

>  <Shape Index 2>
0.53846

>  <Molecular Flexibility 2>
0.51191

>  <Molecular Complexity 2>
0.7268

>  <Non-C/H Atoms>
4

>  <Electronegative Atoms 2>
4

>  <Stereo Centers 2>
1

>  <Rotatable Bonds 2>
6

>  <Rings Closures 2>
3

>  <Aromatic Rings 2>
2

>  <Aromatic Atoms 2>
12

>  <sp3-Atoms>
10

>  <Amides 2>
0

>  <Amines 2>
0

>  <Aromatic Nitrogens 2>
0

>  <Basic Nitrogens>
0

$$$$
Tefluthrin
Actelion Java MolfileCreator 2.0

  0  0  0  0  0  0              0 V3000
M  V30 BEGIN CTAB
M  V30 COUNTS 27 28 0 0 0
M  V30 BEGIN ATOM
M  V30 1 Cl 0.0 0.0 0.0 0
M  V30 2 C 1.2856 -0.7312 0.0 0
M  V30 3 C 2.5712 0.0235 0.0 0
M  V30 4 C 1.2738 -2.2173 0.0 0
M  V30 5 C 2.5594 1.5333 0.0 0
M  V30 6 F -0.2358 -2.2055 0.0 0
M  V30 7 F 1.262 -3.7035 0.0 0
M  V30 8 F 2.7599 -2.2055 0.0 0
M  V30 9 C 3.3024 2.8425 0.0 0
M  V30 10 C 1.8045 2.8425 0.0 0
M  V30 11 C 4.7886 2.8543 0.0 0
M  V30 12 C 4.0455 4.1517 0.0 0
M  V30 13 C 0.4953 3.5973 0.0 0
M  V30 14 O 0.4835 5.107 0.0 0
M  V30 15 O -0.8138 2.8543 0.0 0
M  V30 16 C -2.123 3.6091 0.0 0
M  V30 17 C -3.4322 2.866 0.0 0
M  V30 18 C -4.7414 3.6209 0.0 0
M  V30 19 C -3.444 1.3799 0.0 0
M  V30 20 F -4.7532 5.1306 0.0 0
M  V30 21 C -6.0506 2.8778 0.0 0
M  V30 22 F -2.1584 0.6369 0.0 0
M  V30 23 C -4.7532 0.6369 0.0 0
M  V30 24 F -7.3598 3.6327 0.0 0
M  V30 25 C -6.0624 1.3917 0.0 0
M  V30 26 F -4.765 -0.8492 0.0 0
M  V30 27 C -7.3716 0.6487 0.0 0
M  V30 END ATOM
M  V30 BEGIN BOND
M  V30 1 1 1 2
M  V30 2 2 2 3
M  V30 3 1 2 4
M  V30 4 1 3 5
M  V30 5 1 4 6
M  V30 6 1 4 7
M  V30 7 1 4 8
M  V30 8 1 5 9
M  V30 9 1 5 10
M  V30 10 1 9 11
M  V30 11 1 9 12
M  V30 12 1 10 13
M  V30 13 2 13 14
M  V30 14 1 13 15
M  V30 15 1 15 16
M  V30 16 1 16 17
M  V30 17 2 17 18
M  V30 18 1 17 19
M  V30 19 1 18 20
M  V30 20 1 18 21
M  V30 21 1 19 22
M  V30 22 2 19 23
M  V30 23 1 21 24
M  V30 24 2 21 25
M  V30 25 1 23 26
M  V30 26 1 25 27
M  V30 27 1 9 10
M  V30 28 1 23 25
M  V30 END BOND
M  V30 END CTAB
M  END
>  <Molecule Name>
Tefluthrin

>  <Order (spectra)>
90

>  <NAME>
Tefluthrin

>  <Molecular Formula>
C17H14O2ClF7

>  <Monoisotopic Mass>
418.057053

>  <SMILES>
CC1=C(F)C(F)=C(COC(=O)C2C(\C=C(/Cl)C(F)(F)F)C2(C)C)C(F)=C1F

>  <InChI>
InChI=1S/C17H14ClF7O2/c1-6-11(19)13(21)7(14(22)12(6)20)5-27-15(26)10-8(16(10,2)3)4-9(18)17(23,24)25/h4,8,10H,5H2,1-3H3

>  <InChIKey>
ZFHGXWPMULPQSE-WTKPLQERSA-N

>  <Kingdom>
Organic compounds

>  <Superclass>
Benzenoids

>  <Class>
Benzene and substituted derivatives

>  <Subclass>
Benzyloxycarbonyls

>  <Parent Level 1>
Benzyloxycarbonyls

>  <Parent Level 2>


>  <Parent Level 3>


>  <cLogP>
5.0847

>  <cLogS>
-6.266

>  <Druglikeness>
-7.1197

>  <NP-class probability>
0.16

>  <SmilesFragFp 3>


>  <MS_READY_SMILES>
CC1=C(F)C(F)=C(COC(=O)C2C(C=C(Cl)C(F)(F)F)C2(C)C)C(F)=C1F

>  <MS_READY_InChI>
InChI=1S/C17H14ClF7O2/c1-6-11(19)13(21)7(14(22)12(6)20)5-27-15(26)10-8(16(10,2)3)4-9(18)17(23,24)25/h4,8,10H,5H2,1-3H3

>  <QSAR_READY_SMILES>
CC1=C(F)C(F)=C(COC(=O)C2C(C=C(Cl)C(F)(F)F)C2(C)C)C(F)=C1F

>  <QSAR_READY_InChI>
InChI=1S/C17H14ClF7O2/c1-6-11(19)13(21)7(14(22)12(6)20)5-27-15(26)10-8(16(10,2)3)4-9(18)17(23,24)25/h4,8,10H,5H2,1-3H3

>  <DTXSID>
DTXSID5032577

>  <DTXCID>
DTXCID3012577

>  <CASRN>
79538-32-2

>  <EXPOCAST_MEDIAN_EXPOSURE_PREDICTION_MG/KG-BW/DAY>
4.06E-07

>  <BIOCONCENTRATION_FACTOR_TEST_PRED>
567.545

>  <BOILING_POINT_DEGC_TEST_PRED>
289.657

>  <48HR_DAPHNIA_LC50_MOL/L_TEST_PRED>
1.94E-08

>  <DENSITY_G/CM^3_TEST_PRED>
1.5

>  <DEVTOX_TEST_PRED>
0.96

>  <96HR_FATHEAD_MINNOW_MOL/L_TEST_PRED>
1.27E-08

>  <FLASH_POINT_DEGC_TEST_PRED>
183.803

>  <MELTING_POINT_DEGC_TEST_PRED>
37.059

>  <AMES_MUTAGENICITY_TEST_PRED>
0.654

>  <ORAL_RAT_LD50_MOL/KG_TEST_PRED>
0.000194089

>  <SURFACE_TENSION_DYN/CM_TEST_PRED>
-

>  <THERMAL_CONDUCTIVITY_MW/(M*K)_TEST_PRED>
-

>  <TETRAHYMENA_PYRIFORMIS_IGC50_MOL/L_TEST_PRED>
-

>  <VISCOSITY_CP_CP_TEST_PRED>
-

>  <VAPOR_PRESSURE_MMHG_TEST_PRED>
3.45E-06

>  <WATER_SOLUBILITY_MOL/L_TEST_PRED>
1.04E-07

>  <ATMOSPHERIC_HYDROXYLATION_RATE_(AOH)_CM3/MOLECULE*SEC_OPERA_PRED>
2.18E-11

>  <BIOCONCENTRATION_FACTOR_OPERA_PRED>
1246.93

>  <BIODEGRADATION_HALF_LIFE_DAYS_DAYS_OPERA_PRED>
3.54067

>  <BOILING_POINT_DEGC_OPERA_PRED>
306.215

>  <HENRYS_LAW_ATM-M3/MOLE_OPERA_PRED>
4.48E-08

>  <OPERA_KM_DAYS_OPERA_PRED>
7.37772

>  <OCTANOL_AIR_PARTITION_COEFF_LOGKOA_OPERA_PRED>
8.42149

>  <SOIL_ADSORPTION_COEFFICIENT_KOC_L/KG_OPERA_PRED>
1529.46

>  <OCTANOL_WATER_PARTITION_LOGP_OPERA_PRED>
6.49966

>  <MELTING_POINT_DEGC_OPERA_PRED>
44.5881

>  <VAPOR_PRESSURE_MMHG_OPERA_PRED>
5.97E-05

>  <WATER_SOLUBILITY_MOL/L_OPERA_PRED>
4.29E-08

>  <Shape Index>
0.51852

>  <Molecular Flexibility>
0.51371

>  <Molecular Complexity>
0.8003

>  <Electronegative Atoms>
10

>  <Stereo Centers>
2

>  <Rotatable Bonds>
6

>  <Rings Closures>
2

>  <Aromatic Rings>
1

>  <Aromatic Atoms>
6

>  <Amides>
0

>  <Amines>
0

>  <Aromatic Nitrogens>
0

>  <Shape Index 2>
0.51852

>  <Molecular Flexibility 2>
0.51371

>  <Molecular Complexity 2>
0.8003

>  <Non-C/H Atoms>
10

>  <Electronegative Atoms 2>
10

>  <Stereo Centers 2>
2

>  <Rotatable Bonds 2>
6

>  <Rings Closures 2>
2

>  <Aromatic Rings 2>
1

>  <Aromatic Atoms 2>
6

>  <sp3-Atoms>
9

>  <Amides 2>
0

>  <Amines 2>
0

>  <Aromatic Nitrogens 2>
0

>  <Basic Nitrogens>
0

$$$$
Transfluthrin
Actelion Java MolfileCreator 2.0

  0  0  0  0  0  0              0 V3000
M  V30 BEGIN CTAB
M  V30 COUNTS 23 24 0 0 0
M  V30 BEGIN ATOM
M  V30 1 Cl 0.0 0.0 0.0 0
M  V30 2 C -0.0117 1.5068 0.0 0
M  V30 3 Cl -1.3184 2.2602 0.0 0
M  V30 4 C 1.2714 2.2602 0.0 0
M  V30 5 C 1.2596 3.7671 0.0 0 CFG=1
M  V30 6 C 2.0012 5.0738 0.0 0
M  V30 7 C 0.5062 5.0738 0.0 0 CFG=2
M  V30 8 C 3.4846 5.0856 0.0 0
M  V30 9 C 2.7429 6.3805 0.0 0
M  V30 10 C -0.8005 5.8272 0.0 0
M  V30 11 O -0.8122 7.3341 0.0 0
M  V30 12 O -2.1072 5.0856 0.0 0
M  V30 13 C -3.4139 5.839 0.0 0
M  V30 14 C -4.7206 5.0974 0.0 0
M  V30 15 C -6.0274 5.8508 0.0 0
M  V30 16 C -4.7324 3.614 0.0 0
M  V30 17 F -6.0391 7.3576 0.0 0
M  V30 18 C -7.3341 5.1091 0.0 0
M  V30 19 F -3.4492 2.8724 0.0 0
M  V30 20 C -6.0391 2.8724 0.0 0
M  V30 21 F -8.6408 5.8626 0.0 0
M  V30 22 C -7.3459 3.6258 0.0 0
M  V30 23 F -6.0509 1.3891 0.0 0
M  V30 END ATOM
M  V30 BEGIN BOND
M  V30 1 1 1 2
M  V30 2 1 2 3
M  V30 3 2 2 4
M  V30 4 1 5 4 CFG=3
M  V30 5 1 5 6
M  V30 6 1 5 7
M  V30 7 1 6 8
M  V30 8 1 6 9
M  V30 9 1 7 10 CFG=1
M  V30 10 2 10 11
M  V30 11 1 10 12
M  V30 12 1 12 13
M  V30 13 1 13 14
M  V30 14 2 14 15
M  V30 15 1 14 16
M  V30 16 1 15 17
M  V30 17 1 15 18
M  V30 18 1 16 19
M  V30 19 2 16 20
M  V30 20 1 18 21
M  V30 21 2 18 22
M  V30 22 1 20 23
M  V30 23 1 6 7
M  V30 24 1 20 22
M  V30 END BOND
M  V30 BEGIN COLLECTION
M  V30 MDLV30/STEABS ATOMS=(2 5 7)
M  V30 END COLLECTION
M  V30 END CTAB
M  END
>  <Molecule Name>
Transfluthrin

>  <Order (spectra)>
91

>  <NAME>
Transfluthrin

>  <Molecular Formula>
C15H12O2Cl2F4

>  <Monoisotopic Mass>
370.015046

>  <SMILES>
CC1(C)[C@H](C=C(Cl)Cl)[C@H]1C(=O)OCC1=C(F)C(F)=CC(F)=C1F

>  <InChI>
InChI=1S/C15H12Cl2F4O2/c1-15(2)7(3-10(16)17)11(15)14(22)23-5-6-12(20)8(18)4-9(19)13(6)21/h3-4,7,11H,5H2,1-2H3/t7-,11-/m1/s1

>  <InChIKey>
DDVNRFNDOPPVQJ-HQJQHLMTSA-N

>  <Kingdom>
Organic compounds

>  <Superclass>
Benzenoids

>  <Class>
Benzene and substituted derivatives

>  <Subclass>
Benzyloxycarbonyls

>  <Parent Level 1>
Benzyloxycarbonyls

>  <Parent Level 2>


>  <Parent Level 3>


>  <cLogP>
4.8165

>  <cLogS>
-5.428

>  <Druglikeness>
-0.41529

>  <NP-class probability>
0.14

>  <SmilesFragFp 3>


>  <MS_READY_SMILES>
CC1(C)C(C=C(Cl)Cl)C1C(=O)OCC1=C(F)C(F)=CC(F)=C1F

>  <MS_READY_InChI>
InChI=1S/C15H12Cl2F4O2/c1-15(2)7(3-10(16)17)11(15)14(22)23-5-6-12(20)8(18)4-9(19)13(6)21/h3-4,7,11H,5H2,1-2H3

>  <QSAR_READY_SMILES>
CC1(C)C(C=C(Cl)Cl)C1C(=O)OCC1=C(F)C(F)=CC(F)=C1F

>  <QSAR_READY_InChI>
InChI=1S/C15H12Cl2F4O2/c1-15(2)7(3-10(16)17)11(15)14(22)23-5-6-12(20)8(18)4-9(19)13(6)21/h3-4,7,11H,5H2,1-2H3

>  <DTXSID>
DTXSID4046812

>  <DTXCID>
DTXCID2026812

>  <CASRN>
118712-89-3

>  <EXPOCAST_MEDIAN_EXPOSURE_PREDICTION_MG/KG-BW/DAY>
1.65E-06

>  <BIOCONCENTRATION_FACTOR_TEST_PRED>
516.416

>  <BOILING_POINT_DEGC_TEST_PRED>
313.478

>  <48HR_DAPHNIA_LC50_MOL/L_TEST_PRED>
6.81E-08

>  <DENSITY_G/CM^3_TEST_PRED>
1.483

>  <DEVTOX_TEST_PRED>
0.929

>  <96HR_FATHEAD_MINNOW_MOL/L_TEST_PRED>
4.70E-08

>  <FLASH_POINT_DEGC_TEST_PRED>
185.772

>  <MELTING_POINT_DEGC_TEST_PRED>
38.831

>  <AMES_MUTAGENICITY_TEST_PRED>
0.952

>  <ORAL_RAT_LD50_MOL/KG_TEST_PRED>
0.00028774

>  <SURFACE_TENSION_DYN/CM_TEST_PRED>
-

>  <THERMAL_CONDUCTIVITY_MW/(M*K)_TEST_PRED>
118.006

>  <TETRAHYMENA_PYRIFORMIS_IGC50_MOL/L_TEST_PRED>
-

>  <VISCOSITY_CP_CP_TEST_PRED>
9.05733

>  <VAPOR_PRESSURE_MMHG_TEST_PRED>
1.87E-06

>  <WATER_SOLUBILITY_MOL/L_TEST_PRED>
5.98E-07

>  <ATMOSPHERIC_HYDROXYLATION_RATE_(AOH)_CM3/MOLECULE*SEC_OPERA_PRED>
2.21E-11

>  <BIOCONCENTRATION_FACTOR_OPERA_PRED>
9436.44

>  <BIODEGRADATION_HALF_LIFE_DAYS_DAYS_OPERA_PRED>
3.53537

>  <BOILING_POINT_DEGC_OPERA_PRED>
317.312

>  <HENRYS_LAW_ATM-M3/MOLE_OPERA_PRED>
5.01E-09

>  <OPERA_KM_DAYS_OPERA_PRED>
1.44527

>  <OCTANOL_AIR_PARTITION_COEFF_LOGKOA_OPERA_PRED>
8.53144

>  <SOIL_ADSORPTION_COEFFICIENT_KOC_L/KG_OPERA_PRED>
1180.69

>  <OCTANOL_WATER_PARTITION_LOGP_OPERA_PRED>
5.46182

>  <MELTING_POINT_DEGC_OPERA_PRED>
32.0612

>  <VAPOR_PRESSURE_MMHG_OPERA_PRED>
3.00E-06

>  <WATER_SOLUBILITY_MOL/L_OPERA_PRED>
1.56E-07

>  <Shape Index>
0.52174

>  <Molecular Flexibility>
0.36534

>  <Molecular Complexity>
0.76856

>  <Electronegative Atoms>
8

>  <Stereo Centers>
2

>  <Rotatable Bonds>
5

>  <Rings Closures>
2

>  <Aromatic Rings>
1

>  <Aromatic Atoms>
6

>  <Amides>
0

>  <Amines>
0

>  <Aromatic Nitrogens>
0

>  <Shape Index 2>
0.52174

>  <Molecular Flexibility 2>
0.36534

>  <Molecular Complexity 2>
0.76856

>  <Non-C/H Atoms>
8

>  <Electronegative Atoms 2>
8

>  <Stereo Centers 2>
2

>  <Rotatable Bonds 2>
5

>  <Rings Closures 2>
2

>  <Aromatic Rings 2>
1

>  <Aromatic Atoms 2>
6

>  <sp3-Atoms>
7

>  <Amides 2>
0

>  <Amines 2>
0

>  <Aromatic Nitrogens 2>
0

>  <Basic Nitrogens>
0

$$$$
2,3,4,5-Tetrabromo-6-chlorotoluene
Actelion Java MolfileCreator 2.0

  0  0  0  0  0  0              0 V3000
M  V30 BEGIN CTAB
M  V30 COUNTS 12 12 0 0 0
M  V30 BEGIN ATOM
M  V30 1 Br 0.0 0.0 0.0 0
M  V30 2 C -1.3102 -0.7318 0.0 0
M  V30 3 C -2.6205 0.0236 0.0 0
M  V30 4 C -1.322 -2.2192 0.0 0
M  V30 5 Br -2.6323 1.5345 0.0 0
M  V30 6 C -3.9308 -0.7082 0.0 0
M  V30 7 Br -0.0354 -2.9628 0.0 0
M  V30 8 C -2.6323 -2.951 0.0 0
M  V30 9 Br -5.2411 0.0472 0.0 0
M  V30 10 C -3.9426 -2.1956 0.0 0
M  V30 11 Cl -2.6441 -4.4384 0.0 0
M  V30 12 C -5.2529 -2.9274 0.0 0
M  V30 END ATOM
M  V30 BEGIN BOND
M  V30 1 1 1 2
M  V30 2 2 2 3
M  V30 3 1 2 4
M  V30 4 1 3 5
M  V30 5 1 3 6
M  V30 6 1 4 7
M  V30 7 2 4 8
M  V30 8 1 6 9
M  V30 9 2 6 10
M  V30 10 1 8 11
M  V30 11 1 10 12
M  V30 12 1 8 10
M  V30 END BOND
M  V30 END CTAB
M  END
>  <Molecule Name>
2,3,4,5-Tetrabromo-6-chlorotoluene

>  <Order (spectra)>
111

>  <NAME>
2,3,4,5-Tetrabromo-6-chlorotoluene

>  <Molecular Formula>
C7H3Br4Cl

>  <Monoisotopic Mass>
437.665671

>  <SMILES>
CC1=C(Cl)C(Br)=C(Br)C(Br)=C1Br

>  <InChI>
InChI=1S/C7H3Br4Cl/c1-2-3(8)4(9)5(10)6(11)7(2)12/h1H3

>  <InChIKey>
WMXWTOJJASZOCL-UHFFFAOYSA-N

>  <Kingdom>
Organic compounds

>  <Superclass>
Benzenoids

>  <Class>
Benzene and substituted derivatives

>  <Subclass>
Halobenzenes

>  <Parent Level 1>
Chlorobenzenes

>  <Parent Level 2>


>  <Parent Level 3>


>  <cLogP>
5.5103

>  <cLogS>
-6.032

>  <Druglikeness>
-3.9813

>  <NP-class probability>
0.23

>  <SmilesFragFp 3>


>  <MS_READY_SMILES>
CC1=C(Cl)C(Br)=C(Br)C(Br)=C1Br

>  <MS_READY_InChI>
InChI=1S/C7H3Br4Cl/c1-2-3(8)4(9)5(10)6(11)7(2)12/h1H3

>  <QSAR_READY_SMILES>
CC1=C(Cl)C(Br)=C(Br)C(Br)=C1Br

>  <QSAR_READY_InChI>
InChI=1S/C7H3Br4Cl/c1-2-3(8)4(9)5(10)6(11)7(2)12/h1H3

>  <DTXSID>
DTXSID50192686

>  <DTXCID>
DTXCID90115177

>  <CASRN>
39569-21-6

>  <EXPOCAST_MEDIAN_EXPOSURE_PREDICTION_MG/KG-BW/DAY>
1.33E-07

>  <BIOCONCENTRATION_FACTOR_TEST_PRED>
2094.11

>  <BOILING_POINT_DEGC_TEST_PRED>
358.318

>  <48HR_DAPHNIA_LC50_MOL/L_TEST_PRED>
8.43E-08

>  <DENSITY_G/CM^3_TEST_PRED>
2.662

>  <DEVTOX_TEST_PRED>
-

>  <96HR_FATHEAD_MINNOW_MOL/L_TEST_PRED>
2.48E-07

>  <FLASH_POINT_DEGC_TEST_PRED>
157.877

>  <MELTING_POINT_DEGC_TEST_PRED>
199.415

>  <AMES_MUTAGENICITY_TEST_PRED>
0.024

>  <ORAL_RAT_LD50_MOL/KG_TEST_PRED>
-

>  <SURFACE_TENSION_DYN/CM_TEST_PRED>
-

>  <THERMAL_CONDUCTIVITY_MW/(M*K)_TEST_PRED>
101.524

>  <TETRAHYMENA_PYRIFORMIS_IGC50_MOL/L_TEST_PRED>
2.75E-06

>  <VISCOSITY_CP_CP_TEST_PRED>
8.33681

>  <VAPOR_PRESSURE_MMHG_TEST_PRED>
9.27E-06

>  <WATER_SOLUBILITY_MOL/L_TEST_PRED>
5.68E-08

>  <ATMOSPHERIC_HYDROXYLATION_RATE_(AOH)_CM3/MOLECULE*SEC_OPERA_PRED>
1.00E-12

>  <BIOCONCENTRATION_FACTOR_OPERA_PRED>
6621.18

>  <BIODEGRADATION_HALF_LIFE_DAYS_DAYS_OPERA_PRED>
20.9498

>  <BOILING_POINT_DEGC_OPERA_PRED>
340.205

>  <HENRYS_LAW_ATM-M3/MOLE_OPERA_PRED>
0.00082605

>  <OPERA_KM_DAYS_OPERA_PRED>
2.6772

>  <OCTANOL_AIR_PARTITION_COEFF_LOGKOA_OPERA_PRED>
8.21091

>  <SOIL_ADSORPTION_COEFFICIENT_KOC_L/KG_OPERA_PRED>
16501.2

>  <OCTANOL_WATER_PARTITION_LOGP_OPERA_PRED>
5.32844

>  <MELTING_POINT_DEGC_OPERA_PRED>
50.4971

>  <VAPOR_PRESSURE_MMHG_OPERA_PRED>
0.00116833

>  <WATER_SOLUBILITY_MOL/L_OPERA_PRED>
1.71E-07

>  <Shape Index>
0.5

>  <Molecular Flexibility>
0

>  <Molecular Complexity>
0.74239

>  <Electronegative Atoms>
5

>  <Stereo Centers>
0

>  <Rotatable Bonds>
0

>  <Rings Closures>
1

>  <Aromatic Rings>
1

>  <Aromatic Atoms>
6

>  <Amides>
0

>  <Amines>
0

>  <Aromatic Nitrogens>
0

>  <Shape Index 2>
0.5

>  <Molecular Flexibility 2>
0

>  <Molecular Complexity 2>
0.74239

>  <Non-C/H Atoms>
5

>  <Electronegative Atoms 2>
5

>  <Stereo Centers 2>
0

>  <Rotatable Bonds 2>
0

>  <Rings Closures 2>
1

>  <Aromatic Rings 2>
1

>  <Aromatic Atoms 2>
6

>  <sp3-Atoms>
1

>  <Amides 2>
0

>  <Amines 2>
0

>  <Aromatic Nitrogens 2>
0

>  <Basic Nitrogens>
0

$$$$
2,3,4,5,6-Pentabromotoluene
Actelion Java MolfileCreator 2.0

  0  0  0  0  0  0              0 V3000
M  V30 BEGIN CTAB
M  V30 COUNTS 12 12 0 0 0
M  V30 BEGIN ATOM
M  V30 1 Br 0.0 0.0 0.0 0
M  V30 2 C -1.3102 -0.7318 0.0 0
M  V30 3 C -2.6205 0.0236 0.0 0
M  V30 4 C -1.322 -2.2192 0.0 0
M  V30 5 Br -2.6323 1.5345 0.0 0
M  V30 6 C -3.9308 -0.7082 0.0 0
M  V30 7 Br -0.0354 -2.9628 0.0 0
M  V30 8 C -2.6323 -2.951 0.0 0
M  V30 9 Br -5.2411 0.0472 0.0 0
M  V30 10 C -3.9426 -2.1956 0.0 0
M  V30 11 Br -2.6441 -4.4384 0.0 0
M  V30 12 C -5.2529 -2.9274 0.0 0
M  V30 END ATOM
M  V30 BEGIN BOND
M  V30 1 1 1 2
M  V30 2 2 2 3
M  V30 3 1 2 4
M  V30 4 1 3 5
M  V30 5 1 3 6
M  V30 6 1 4 7
M  V30 7 2 4 8
M  V30 8 1 6 9
M  V30 9 2 6 10
M  V30 10 1 8 11
M  V30 11 1 10 12
M  V30 12 1 8 10
M  V30 END BOND
M  V30 END CTAB
M  END
>  <Molecule Name>
2,3,4,5,6-Pentabromotoluene

>  <Order (spectra)>
112

>  <NAME>
2,3,4,5,6-Pentabromotoluene

>  <Molecular Formula>
C7H3Br5

>  <Monoisotopic Mass>
481.615155

>  <SMILES>
CC1=C(Br)C(Br)=C(Br)C(Br)=C1Br

>  <InChI>
InChI=1S/C7H3Br5/c1-2-3(8)5(10)7(12)6(11)4(2)9/h1H3

>  <InChIKey>
OZHJEQVYCBTHJT-UHFFFAOYSA-N

>  <Kingdom>
Organic compounds

>  <Superclass>
Benzenoids

>  <Class>
Benzene and substituted derivatives

>  <Subclass>
Halobenzenes

>  <Parent Level 1>
Bromobenzenes

>  <Parent Level 2>


>  <Parent Level 3>


>  <cLogP>
5.6295

>  <cLogS>
-6.13

>  <Druglikeness>
-4.2499

>  <NP-class probability>
0.36

>  <SmilesFragFp 3>


>  <MS_READY_SMILES>
CC1=C(Br)C(Br)=C(Br)C(Br)=C1Br

>  <MS_READY_InChI>
InChI=1S/C7H3Br5/c1-2-3(8)5(10)7(12)6(11)4(2)9/h1H3

>  <QSAR_READY_SMILES>
CC1=C(Br)C(Br)=C(Br)C(Br)=C1Br

>  <QSAR_READY_InChI>
InChI=1S/C7H3Br5/c1-2-3(8)5(10)7(12)6(11)4(2)9/h1H3

>  <DTXSID>
DTXSID3025833

>  <DTXCID>
DTXCID205833

>  <CASRN>
87-83-2

>  <EXPOCAST_MEDIAN_EXPOSURE_PREDICTION_MG/KG-BW/DAY>
1.21E-07

>  <BIOCONCENTRATION_FACTOR_TEST_PRED>
2280.34

>  <BOILING_POINT_DEGC_TEST_PRED>
370.207

>  <48HR_DAPHNIA_LC50_MOL/L_TEST_PRED>
6.12E-08

>  <DENSITY_G/CM^3_TEST_PRED>
2.834

>  <DEVTOX_TEST_PRED>
-

>  <96HR_FATHEAD_MINNOW_MOL/L_TEST_PRED>
2.18E-07

>  <FLASH_POINT_DEGC_TEST_PRED>
158.776

>  <MELTING_POINT_DEGC_TEST_PRED>
219.612

>  <AMES_MUTAGENICITY_TEST_PRED>
-0.049

>  <ORAL_RAT_LD50_MOL/KG_TEST_PRED>
-

>  <SURFACE_TENSION_DYN/CM_TEST_PRED>
-

>  <THERMAL_CONDUCTIVITY_MW/(M*K)_TEST_PRED>
100.707

>  <TETRAHYMENA_PYRIFORMIS_IGC50_MOL/L_TEST_PRED>
2.54E-06

>  <VISCOSITY_CP_CP_TEST_PRED>
10.6414

>  <VAPOR_PRESSURE_MMHG_TEST_PRED>
5.68E-06

>  <WATER_SOLUBILITY_MOL/L_TEST_PRED>
3.43E-08

>  <ATMOSPHERIC_HYDROXYLATION_RATE_(AOH)_CM3/MOLECULE*SEC_OPERA_PRED>
7.44E-13

>  <BIOCONCENTRATION_FACTOR_OPERA_PRED>
270.865

>  <BIODEGRADATION_HALF_LIFE_DAYS_DAYS_OPERA_PRED>
49.7475

>  <BOILING_POINT_DEGC_OPERA_PRED>
342.384

>  <HENRYS_LAW_ATM-M3/MOLE_OPERA_PRED>
0.000865193

>  <OPERA_KM_DAYS_OPERA_PRED>
0.744057

>  <OCTANOL_AIR_PARTITION_COEFF_LOGKOA_OPERA_PRED>
8.95373

>  <SOIL_ADSORPTION_COEFFICIENT_KOC_L/KG_OPERA_PRED>
16994.6

>  <OCTANOL_WATER_PARTITION_LOGP_OPERA_PRED>
5.44634

>  <MELTING_POINT_DEGC_OPERA_PRED>
287.339

>  <VAPOR_PRESSURE_MMHG_OPERA_PRED>
0.000522938

>  <WATER_SOLUBILITY_MOL/L_OPERA_PRED>
1.09E-08

>  <Shape Index>
0.5

>  <Molecular Flexibility>
0

>  <Molecular Complexity>
0.69315

>  <Electronegative Atoms>
5

>  <Stereo Centers>
0

>  <Rotatable Bonds>
0

>  <Rings Closures>
1

>  <Aromatic Rings>
1

>  <Aromatic Atoms>
6

>  <Amides>
0

>  <Amines>
0

>  <Aromatic Nitrogens>
0

>  <Shape Index 2>
0.5

>  <Molecular Flexibility 2>
0

>  <Molecular Complexity 2>
0.69315

>  <Non-C/H Atoms>
5

>  <Electronegative Atoms 2>
5

>  <Stereo Centers 2>
0

>  <Rotatable Bonds 2>
0

>  <Rings Closures 2>
1

>  <Aromatic Rings 2>
1

>  <Aromatic Atoms 2>
6

>  <sp3-Atoms>
1

>  <Amides 2>
0

>  <Amines 2>
0

>  <Aromatic Nitrogens 2>
0

>  <Basic Nitrogens>
0

$$$$
2,3,4,5,6-Pentabromoethylbenzene
Actelion Java MolfileCreator 2.0

  0  0  0  0  0  0              0 V3000
M  V30 BEGIN CTAB
M  V30 COUNTS 13 13 0 0 0
M  V30 BEGIN ATOM
M  V30 1 Br 0.0 0.0 0.0 0
M  V30 2 C -1.3043 0.7637 0.0 0
M  V30 3 C -1.316 2.2678 0.0 0
M  V30 4 C -2.6086 0.0235 0.0 0
M  V30 5 Br -0.0352 3.0199 0.0 0
M  V30 6 C -2.6204 3.0199 0.0 0
M  V30 7 Br -2.6204 -1.457 0.0 0
M  V30 8 C -3.9129 0.7755 0.0 0
M  V30 9 Br -2.6321 4.524 0.0 0
M  V30 10 C -3.9247 2.2796 0.0 0
M  V30 11 Br -5.2173 0.047 0.0 0
M  V30 12 C -5.229 3.0316 0.0 0
M  V30 13 C -6.5334 2.2913 0.0 0
M  V30 END ATOM
M  V30 BEGIN BOND
M  V30 1 1 1 2
M  V30 2 2 2 3
M  V30 3 1 2 4
M  V30 4 1 3 5
M  V30 5 1 3 6
M  V30 6 1 4 7
M  V30 7 2 4 8
M  V30 8 1 6 9
M  V30 9 2 6 10
M  V30 10 1 8 11
M  V30 11 1 10 12
M  V30 12 1 12 13
M  V30 13 1 8 10
M  V30 END BOND
M  V30 END CTAB
M  END
>  <Molecule Name>
2,3,4,5,6-Pentabromoethylbenzene

>  <Order (spectra)>
113

>  <NAME>
2,3,4,5,6-Pentabromoethylbenzene

>  <Molecular Formula>
C8H5Br5

>  <Monoisotopic Mass>
495.630805

>  <SMILES>
CCC1=C(Br)C(Br)=C(Br)C(Br)=C1Br

>  <InChI>
InChI=1S/C8H5Br5/c1-2-3-4(9)6(11)8(13)7(12)5(3)10/h2H2,1H3

>  <InChIKey>
FIAXCDIQXHJNIX-UHFFFAOYSA-N

>  <Kingdom>
Organic compounds

>  <Superclass>
Benzenoids

>  <Class>
Benzene and substituted derivatives

>  <Subclass>
Halobenzenes

>  <Parent Level 1>
Bromobenzenes

>  <Parent Level 2>


>  <Parent Level 3>


>  <cLogP>
6.0451

>  <cLogS>
-6.289

>  <Druglikeness>
-4.47

>  <NP-class probability>
0.71

>  <SmilesFragFp 3>


>  <MS_READY_SMILES>
CCC1=C(Br)C(Br)=C(Br)C(Br)=C1Br

>  <MS_READY_InChI>
InChI=1S/C8H5Br5/c1-2-3-4(9)6(11)8(13)7(12)5(3)10/h2H2,1H3

>  <QSAR_READY_SMILES>
CCC1=C(Br)C(Br)=C(Br)C(Br)=C1Br

>  <QSAR_READY_InChI>
InChI=1S/C8H5Br5/c1-2-3-4(9)6(11)8(13)7(12)5(3)10/h2H2,1H3

>  <DTXSID>
DTXSID7021782

>  <DTXCID>
DTXCID701782

>  <CASRN>
85-22-3

>  <EXPOCAST_MEDIAN_EXPOSURE_PREDICTION_MG/KG-BW/DAY>
1.45E-07

>  <BIOCONCENTRATION_FACTOR_TEST_PRED>
721.107

>  <BOILING_POINT_DEGC_TEST_PRED>
377.27

>  <48HR_DAPHNIA_LC50_MOL/L_TEST_PRED>
1.17E-07

>  <DENSITY_G/CM^3_TEST_PRED>
2.751

>  <DEVTOX_TEST_PRED>
-

>  <96HR_FATHEAD_MINNOW_MOL/L_TEST_PRED>
8.57E-08

>  <FLASH_POINT_DEGC_TEST_PRED>
170.729

>  <MELTING_POINT_DEGC_TEST_PRED>
174.488

>  <AMES_MUTAGENICITY_TEST_PRED>
-0.002

>  <ORAL_RAT_LD50_MOL/KG_TEST_PRED>
6.82E-05

>  <SURFACE_TENSION_DYN/CM_TEST_PRED>
-

>  <THERMAL_CONDUCTIVITY_MW/(M*K)_TEST_PRED>
102.648

>  <TETRAHYMENA_PYRIFORMIS_IGC50_MOL/L_TEST_PRED>
2.20E-06

>  <VISCOSITY_CP_CP_TEST_PRED>
11.1944

>  <VAPOR_PRESSURE_MMHG_TEST_PRED>
2.96E-07

>  <WATER_SOLUBILITY_MOL/L_TEST_PRED>
5.87E-09

>  <ATMOSPHERIC_HYDROXYLATION_RATE_(AOH)_CM3/MOLECULE*SEC_OPERA_PRED>
1.62E-12

>  <BIOCONCENTRATION_FACTOR_OPERA_PRED>
335.351

>  <BIODEGRADATION_HALF_LIFE_DAYS_DAYS_OPERA_PRED>
11.3238

>  <BOILING_POINT_DEGC_OPERA_PRED>
341.125

>  <HENRYS_LAW_ATM-M3/MOLE_OPERA_PRED>
0.000870523

>  <OPERA_KM_DAYS_OPERA_PRED>
1.04869

>  <OCTANOL_AIR_PARTITION_COEFF_LOGKOA_OPERA_PRED>
8.82765

>  <SOIL_ADSORPTION_COEFFICIENT_KOC_L/KG_OPERA_PRED>
82971.7

>  <OCTANOL_WATER_PARTITION_LOGP_OPERA_PRED>
5.61863

>  <MELTING_POINT_DEGC_OPERA_PRED>
138.398

>  <VAPOR_PRESSURE_MMHG_OPERA_PRED>
0.000965838

>  <WATER_SOLUBILITY_MOL/L_OPERA_PRED>
5.93E-10

>  <Shape Index>
0.53846

>  <Molecular Flexibility>
0.22109

>  <Molecular Complexity>
0.73241

>  <Electronegative Atoms>
5

>  <Stereo Centers>
0

>  <Rotatable Bonds>
1

>  <Rings Closures>
1

>  <Aromatic Rings>
1

>  <Aromatic Atoms>
6

>  <Amides>
0

>  <Amines>
0

>  <Aromatic Nitrogens>
0

>  <Shape Index 2>
0.53846

>  <Molecular Flexibility 2>
0.22109

>  <Molecular Complexity 2>
0.73241

>  <Non-C/H Atoms>
5

>  <Electronegative Atoms 2>
5

>  <Stereo Centers 2>
0

>  <Rotatable Bonds 2>
1

>  <Rings Closures 2>
1

>  <Aromatic Rings 2>
1

>  <Aromatic Atoms 2>
6

>  <sp3-Atoms>
2

>  <Amides 2>
0

>  <Amines 2>
0

>  <Aromatic Nitrogens 2>
0

>  <Basic Nitrogens>
0

$$$$
2,3,5,6-Tetrabromo-p-xylene
Actelion Java MolfileCreator 2.0

  0  0  0  0  0  0              0 V3000
M  V30 BEGIN CTAB
M  V30 COUNTS 12 12 0 0 0
M  V30 BEGIN ATOM
M  V30 1 Br 0.0 0.0 0.0 0
M  V30 2 C -1.3102 -0.7318 0.0 0
M  V30 3 C -2.6205 0.0236 0.0 0
M  V30 4 C -1.322 -2.2192 0.0 0
M  V30 5 Br -2.6323 1.5345 0.0 0
M  V30 6 C -3.9308 -0.7082 0.0 0
M  V30 7 C -2.6323 -2.951 0.0 0
M  V30 8 C -0.0354 -2.9628 0.0 0
M  V30 9 C -3.9426 -2.1956 0.0 0
M  V30 10 C -5.2411 0.0472 0.0 0
M  V30 11 Br -2.6441 -4.4384 0.0 0
M  V30 12 Br -5.2529 -2.9274 0.0 0
M  V30 END ATOM
M  V30 BEGIN BOND
M  V30 1 1 1 2
M  V30 2 2 2 3
M  V30 3 1 2 4
M  V30 4 1 3 5
M  V30 5 1 3 6
M  V30 6 2 4 7
M  V30 7 1 4 8
M  V30 8 2 6 9
M  V30 9 1 6 10
M  V30 10 1 7 11
M  V30 11 1 9 12
M  V30 12 1 7 9
M  V30 END BOND
M  V30 END CTAB
M  END
>  <Molecule Name>
2,3,5,6-Tetrabromo-p-xylene

>  <Order (spectra)>
114

>  <NAME>
2,3,5,6-Tetrabromo-p-xylene

>  <Molecular Formula>
C8H6Br4

>  <Monoisotopic Mass>
417.720294

>  <SMILES>
CC1=C(Br)C(Br)=C(C)C(Br)=C1Br

>  <InChI>
InChI=1S/C8H6Br4/c1-3-5(9)7(11)4(2)8(12)6(3)10/h1-2H3

>  <InChIKey>
RXKOKVQKECXYOT-UHFFFAOYSA-N

>  <Kingdom>
Organic compounds

>  <Superclass>
Benzenoids

>  <Class>
Benzene and substituted derivatives

>  <Subclass>
Xylenes

>  <Parent Level 1>
p-Xylenes

>  <Parent Level 2>


>  <Parent Level 3>


>  <cLogP>
5.2482

>  <cLogS>
-5.64

>  <Druglikeness>
-4.2499

>  <NP-class probability>
0.11

>  <SmilesFragFp 3>


>  <MS_READY_SMILES>
CC1=C(Br)C(Br)=C(C)C(Br)=C1Br

>  <MS_READY_InChI>
InChI=1S/C8H6Br4/c1-3-5(9)7(11)4(2)8(12)6(3)10/h1-2H3

>  <QSAR_READY_SMILES>
CC1=C(Br)C(Br)=C(C)C(Br)=C1Br

>  <QSAR_READY_InChI>
InChI=1S/C8H6Br4/c1-3-5(9)7(11)4(2)8(12)6(3)10/h1-2H3

>  <DTXSID>
DTXSID8052697

>  <DTXCID>
DTXCID2031295

>  <CASRN>
23488-38-2

>  <EXPOCAST_MEDIAN_EXPOSURE_PREDICTION_MG/KG-BW/DAY>
1.55E-07

>  <BIOCONCENTRATION_FACTOR_TEST_PRED>
2506.11

>  <BOILING_POINT_DEGC_TEST_PRED>
349.973

>  <48HR_DAPHNIA_LC50_MOL/L_TEST_PRED>
1.48E-07

>  <DENSITY_G/CM^3_TEST_PRED>
2.533

>  <DEVTOX_TEST_PRED>
-

>  <96HR_FATHEAD_MINNOW_MOL/L_TEST_PRED>
3.38E-07

>  <FLASH_POINT_DEGC_TEST_PRED>
154.475

>  <MELTING_POINT_DEGC_TEST_PRED>
223.904

>  <AMES_MUTAGENICITY_TEST_PRED>
0.1

>  <ORAL_RAT_LD50_MOL/KG_TEST_PRED>
-

>  <SURFACE_TENSION_DYN/CM_TEST_PRED>
-

>  <THERMAL_CONDUCTIVITY_MW/(M*K)_TEST_PRED>
101.713

>  <TETRAHYMENA_PYRIFORMIS_IGC50_MOL/L_TEST_PRED>
5.68E-06

>  <VISCOSITY_CP_CP_TEST_PRED>
7.26106

>  <VAPOR_PRESSURE_MMHG_TEST_PRED>
9.71E-06

>  <WATER_SOLUBILITY_MOL/L_TEST_PRED>
1.51E-07

>  <ATMOSPHERIC_HYDROXYLATION_RATE_(AOH)_CM3/MOLECULE*SEC_OPERA_PRED>
3.11E-12

>  <BIOCONCENTRATION_FACTOR_OPERA_PRED>
3857.82

>  <BIODEGRADATION_HALF_LIFE_DAYS_DAYS_OPERA_PRED>
23.6768

>  <BOILING_POINT_DEGC_OPERA_PRED>
356.347

>  <HENRYS_LAW_ATM-M3/MOLE_OPERA_PRED>
0.000011642

>  <OPERA_KM_DAYS_OPERA_PRED>
2.08003

>  <OCTANOL_AIR_PARTITION_COEFF_LOGKOA_OPERA_PRED>
8.0032

>  <SOIL_ADSORPTION_COEFFICIENT_KOC_L/KG_OPERA_PRED>
8189.54

>  <OCTANOL_WATER_PARTITION_LOGP_OPERA_PRED>
5.58957

>  <MELTING_POINT_DEGC_OPERA_PRED>
165.13

>  <VAPOR_PRESSURE_MMHG_OPERA_PRED>
0.0213853

>  <WATER_SOLUBILITY_MOL/L_OPERA_PRED>
1.60E-07

>  <Shape Index>
0.5

>  <Molecular Flexibility>
0

>  <Molecular Complexity>
0.73647

>  <Electronegative Atoms>
4

>  <Stereo Centers>
0

>  <Rotatable Bonds>
0

>  <Rings Closures>
1

>  <Aromatic Rings>
1

>  <Aromatic Atoms>
6

>  <Amides>
0

>  <Amines>
0

>  <Aromatic Nitrogens>
0

>  <Shape Index 2>
0.5

>  <Molecular Flexibility 2>
0

>  <Molecular Complexity 2>
0.73647

>  <Non-C/H Atoms>
4

>  <Electronegative Atoms 2>
4

>  <Stereo Centers 2>
0

>  <Rotatable Bonds 2>
0

>  <Rings Closures 2>
1

>  <Aromatic Rings 2>
1

>  <Aromatic Atoms 2>
6

>  <sp3-Atoms>
2

>  <Amides 2>
0

>  <Amines 2>
0

>  <Aromatic Nitrogens 2>
0

>  <Basic Nitrogens>
0

$$$$
Pentabromobenzene
Actelion Java MolfileCreator 2.0

  0  0  0  0  0  0              0 V3000
M  V30 BEGIN CTAB
M  V30 COUNTS 11 11 0 0 0
M  V30 BEGIN ATOM
M  V30 1 Br 0.0 0.0 0.0 0
M  V30 2 C -1.3103 -0.7319 0.0 0
M  V30 3 C -2.6206 0.0236 0.0 0
M  V30 4 C -1.3221 -2.2193 0.0 0
M  V30 5 Br -2.6324 1.5346 0.0 0
M  V30 6 C -3.931 -0.7082 0.0 0
M  V30 7 Br -0.0354 -2.963 0.0 0
M  V30 8 C -2.6324 -2.9512 0.0 0
M  V30 9 Br -5.2413 0.0472 0.0 0
M  V30 10 C -3.9428 -2.1957 0.0 0
M  V30 11 Br -2.6442 -4.4386 0.0 0
M  V30 END ATOM
M  V30 BEGIN BOND
M  V30 1 1 1 2
M  V30 2 2 2 3
M  V30 3 1 2 4
M  V30 4 1 3 5
M  V30 5 1 3 6
M  V30 6 1 4 7
M  V30 7 2 4 8
M  V30 8 1 6 9
M  V30 9 2 6 10
M  V30 10 1 8 11
M  V30 11 1 8 10
M  V30 END BOND
M  V30 END CTAB
M  END
>  <Molecule Name>
Pentabromobenzene

>  <Order (spectra)>
117

>  <NAME>
Pentabromobenzene

>  <Molecular Formula>
C6HBr5

>  <Monoisotopic Mass>
467.599505

>  <SMILES>
BrC1=CC(Br)=C(Br)C(Br)=C1Br

>  <InChI>
InChI=1S/C6HBr5/c7-2-1-3(8)5(10)6(11)4(2)9/h1H

>  <InChIKey>
LLVVSBBXENOOQY-UHFFFAOYSA-N

>  <Kingdom>
Organic compounds

>  <Superclass>
Benzenoids

>  <Class>
Benzene and substituted derivatives

>  <Subclass>
Halobenzenes

>  <Parent Level 1>
Bromobenzenes

>  <Parent Level 2>


>  <Parent Level 3>


>  <cLogP>
5.2856

>  <cLogS>
-5.786

>  <Druglikeness>
-4.1475

>  <NP-class probability>
0.32

>  <SmilesFragFp 3>


>  <MS_READY_SMILES>
BrC1=CC(Br)=C(Br)C(Br)=C1Br

>  <MS_READY_InChI>
InChI=1S/C6HBr5/c7-2-1-3(8)5(10)6(11)4(2)9/h1H

>  <QSAR_READY_SMILES>
BrC1=CC(Br)=C(Br)C(Br)=C1Br

>  <QSAR_READY_InChI>
InChI=1S/C6HBr5/c7-2-1-3(8)5(10)6(11)4(2)9/h1H

>  <DTXSID>
DTXSID90209646

>  <DTXCID>
DTXCID40132137

>  <CASRN>
608-90-2

>  <EXPOCAST_MEDIAN_EXPOSURE_PREDICTION_MG/KG-BW/DAY>
1.74E-07

>  <BIOCONCENTRATION_FACTOR_TEST_PRED>
1967.89

>  <BOILING_POINT_DEGC_TEST_PRED>
354.694

>  <48HR_DAPHNIA_LC50_MOL/L_TEST_PRED>
1.10E-07

>  <DENSITY_G/CM^3_TEST_PRED>
3.047

>  <DEVTOX_TEST_PRED>
-

>  <96HR_FATHEAD_MINNOW_MOL/L_TEST_PRED>
4.33E-07

>  <FLASH_POINT_DEGC_TEST_PRED>
151.802

>  <MELTING_POINT_DEGC_TEST_PRED>
177.556

>  <AMES_MUTAGENICITY_TEST_PRED>
-0.04

>  <ORAL_RAT_LD50_MOL/KG_TEST_PRED>
-

>  <SURFACE_TENSION_DYN/CM_TEST_PRED>
-

>  <THERMAL_CONDUCTIVITY_MW/(M*K)_TEST_PRED>
100.105

>  <TETRAHYMENA_PYRIFORMIS_IGC50_MOL/L_TEST_PRED>
2.08E-06

>  <VISCOSITY_CP_CP_TEST_PRED>
12.5026

>  <VAPOR_PRESSURE_MMHG_TEST_PRED>
8.99E-06

>  <WATER_SOLUBILITY_MOL/L_TEST_PRED>
3.47E-08

>  <ATMOSPHERIC_HYDROXYLATION_RATE_(AOH)_CM3/MOLECULE*SEC_OPERA_PRED>
4.07E-13

>  <BIOCONCENTRATION_FACTOR_OPERA_PRED>
1967.5

>  <BIODEGRADATION_HALF_LIFE_DAYS_DAYS_OPERA_PRED>
29.9331

>  <BOILING_POINT_DEGC_OPERA_PRED>
337.188

>  <HENRYS_LAW_ATM-M3/MOLE_OPERA_PRED>
0.000872642

>  <OPERA_KM_DAYS_OPERA_PRED>
4.18913

>  <OCTANOL_AIR_PARTITION_COEFF_LOGKOA_OPERA_PRED>
7.92662

>  <SOIL_ADSORPTION_COEFFICIENT_KOC_L/KG_OPERA_PRED>
3209.45

>  <OCTANOL_WATER_PARTITION_LOGP_OPERA_PRED>
4.73463

>  <MELTING_POINT_DEGC_OPERA_PRED>
160.548

>  <VAPOR_PRESSURE_MMHG_OPERA_PRED>
0.00192535

>  <WATER_SOLUBILITY_MOL/L_OPERA_PRED>
6.01E-07

>  <Shape Index>
0.54545

>  <Molecular Flexibility>
0

>  <Molecular Complexity>
0.68024

>  <Electronegative Atoms>
5

>  <Stereo Centers>
0

>  <Rotatable Bonds>
0

>  <Rings Closures>
1

>  <Aromatic Rings>
1

>  <Aromatic Atoms>
6

>  <Amides>
0

>  <Amines>
0

>  <Aromatic Nitrogens>
0

>  <Shape Index 2>
0.54545

>  <Molecular Flexibility 2>
0

>  <Molecular Complexity 2>
0.68024

>  <Non-C/H Atoms>
5

>  <Electronegative Atoms 2>
5

>  <Stereo Centers 2>
0

>  <Rotatable Bonds 2>
0

>  <Rings Closures 2>
1

>  <Aromatic Rings 2>
1

>  <Aromatic Atoms 2>
6

>  <sp3-Atoms>
0

>  <Amides 2>
0

>  <Amines 2>
0

>  <Aromatic Nitrogens 2>
0

>  <Basic Nitrogens>
0

$$$$
Hexabromobenzene
Actelion Java MolfileCreator 2.0

  0  0  0  0  0  0              0 V3000
M  V30 BEGIN CTAB
M  V30 COUNTS 12 12 0 0 0
M  V30 BEGIN ATOM
M  V30 1 Br 0.0 0.0 0.0 0
M  V30 2 C -1.3102 -0.7318 0.0 0
M  V30 3 C -2.6205 0.0236 0.0 0
M  V30 4 C -1.322 -2.2192 0.0 0
M  V30 5 Br -2.6323 1.5345 0.0 0
M  V30 6 C -3.9308 -0.7082 0.0 0
M  V30 7 Br -0.0354 -2.9628 0.0 0
M  V30 8 C -2.6323 -2.951 0.0 0
M  V30 9 Br -5.2411 0.0472 0.0 0
M  V30 10 C -3.9426 -2.1956 0.0 0
M  V30 11 Br -2.6441 -4.4384 0.0 0
M  V30 12 Br -5.2529 -2.9274 0.0 0
M  V30 END ATOM
M  V30 BEGIN BOND
M  V30 1 1 1 2
M  V30 2 2 2 3
M  V30 3 1 2 4
M  V30 4 1 3 5
M  V30 5 1 3 6
M  V30 6 1 4 7
M  V30 7 2 4 8
M  V30 8 1 6 9
M  V30 9 2 6 10
M  V30 10 1 8 11
M  V30 11 1 10 12
M  V30 12 1 8 10
M  V30 END BOND
M  V30 END CTAB
M  END
>  <Molecule Name>
Hexabromobenzene

>  <Order (spectra)>
118

>  <NAME>
Hexabromobenzene

>  <Molecular Formula>
C6Br6

>  <Monoisotopic Mass>
545.510016

>  <SMILES>
BrC1=C(Br)C(Br)=C(Br)C(Br)=C1Br

>  <InChI>
InChI=1S/C6Br6/c7-1-2(8)4(10)6(12)5(11)3(1)9

>  <InChIKey>
CAYGQBVSOZLICD-UHFFFAOYSA-N

>  <Kingdom>
Organic compounds

>  <Superclass>
Benzenoids

>  <Class>
Benzene and substituted derivatives

>  <Subclass>
Halobenzenes

>  <Parent Level 1>
Bromobenzenes

>  <Parent Level 2>


>  <Parent Level 3>


>  <cLogP>
6.0108

>  <cLogS>
-6.62

>  <Druglikeness>
-4.1475

>  <NP-class probability>
0.32

>  <SmilesFragFp 3>


>  <MS_READY_SMILES>
BrC1=C(Br)C(Br)=C(Br)C(Br)=C1Br

>  <MS_READY_InChI>
InChI=1S/C6Br6/c7-1-2(8)4(10)6(12)5(11)3(1)9

>  <QSAR_READY_SMILES>
BrC1=C(Br)C(Br)=C(Br)C(Br)=C1Br

>  <QSAR_READY_InChI>
InChI=1S/C6Br6/c7-1-2(8)4(10)6(12)5(11)3(1)9

>  <DTXSID>
DTXSID1024128

>  <DTXCID>
DTXCID404128

>  <CASRN>
87-82-1

>  <EXPOCAST_MEDIAN_EXPOSURE_PREDICTION_MG/KG-BW/DAY>
8.89E-08

>  <BIOCONCENTRATION_FACTOR_TEST_PRED>
2254.24

>  <BOILING_POINT_DEGC_TEST_PRED>
372.977

>  <48HR_DAPHNIA_LC50_MOL/L_TEST_PRED>
8.04E-08

>  <DENSITY_G/CM^3_TEST_PRED>
3.132

>  <DEVTOX_TEST_PRED>
-

>  <96HR_FATHEAD_MINNOW_MOL/L_TEST_PRED>
8.59E-08

>  <FLASH_POINT_DEGC_TEST_PRED>
163.906

>  <MELTING_POINT_DEGC_TEST_PRED>
226.053

>  <AMES_MUTAGENICITY_TEST_PRED>
-0.112

>  <ORAL_RAT_LD50_MOL/KG_TEST_PRED>
0.000303389

>  <SURFACE_TENSION_DYN/CM_TEST_PRED>
-

>  <THERMAL_CONDUCTIVITY_MW/(M*K)_TEST_PRED>
96.321

>  <TETRAHYMENA_PYRIFORMIS_IGC50_MOL/L_TEST_PRED>
1.59E-06

>  <VISCOSITY_CP_CP_TEST_PRED>
-

>  <VAPOR_PRESSURE_MMHG_TEST_PRED>
1.38E-06

>  <WATER_SOLUBILITY_MOL/L_TEST_PRED>
1.24E-08

>  <ATMOSPHERIC_HYDROXYLATION_RATE_(AOH)_CM3/MOLECULE*SEC_OPERA_PRED>
1.73E-13

>  <BIOCONCENTRATION_FACTOR_OPERA_PRED>
1001.89

>  <BIODEGRADATION_HALF_LIFE_DAYS_DAYS_OPERA_PRED>
69.5134

>  <BOILING_POINT_DEGC_OPERA_PRED>
343.436

>  <HENRYS_LAW_ATM-M3/MOLE_OPERA_PRED>
0.00316583

>  <OPERA_KM_DAYS_OPERA_PRED>
2.69133

>  <OCTANOL_AIR_PARTITION_COEFF_LOGKOA_OPERA_PRED>
9.25573

>  <SOIL_ADSORPTION_COEFFICIENT_KOC_L/KG_OPERA_PRED>
3266.86

>  <OCTANOL_WATER_PARTITION_LOGP_OPERA_PRED>
6.06839

>  <MELTING_POINT_DEGC_OPERA_PRED>
325.728

>  <VAPOR_PRESSURE_MMHG_OPERA_PRED>
3.30E-06

>  <WATER_SOLUBILITY_MOL/L_OPERA_PRED>
2.93E-10

>  <Shape Index>
0.5

>  <Molecular Flexibility>
0

>  <Molecular Complexity>
0.6452

>  <Electronegative Atoms>
6

>  <Stereo Centers>
0

>  <Rotatable Bonds>
0

>  <Rings Closures>
1

>  <Aromatic Rings>
1

>  <Aromatic Atoms>
6

>  <Amides>
0

>  <Amines>
0

>  <Aromatic Nitrogens>
0

>  <Shape Index 2>
0.5

>  <Molecular Flexibility 2>
0

>  <Molecular Complexity 2>
0.6452

>  <Non-C/H Atoms>
6

>  <Electronegative Atoms 2>
6

>  <Stereo Centers 2>
0

>  <Rotatable Bonds 2>
0

>  <Rings Closures 2>
1

>  <Aromatic Rings 2>
1

>  <Aromatic Atoms 2>
6

>  <sp3-Atoms>
0

>  <Amides 2>
0

>  <Amines 2>
0

>  <Aromatic Nitrogens 2>
0

>  <Basic Nitrogens>
0

$$$$
2,3,4,5,6-Pentabromobenzyl alcohol
Actelion Java MolfileCreator 2.0

  0  0  0  0  0  0              0 V3000
M  V30 BEGIN CTAB
M  V30 COUNTS 13 13 0 0 0
M  V30 BEGIN ATOM
M  V30 1 Br 0.0 0.0 0.0 0
M  V30 2 C -1.3043 0.7637 0.0 0
M  V30 3 C -1.316 2.2678 0.0 0
M  V30 4 C -2.6086 0.0235 0.0 0
M  V30 5 Br -0.0352 3.0199 0.0 0
M  V30 6 C -2.6204 3.0199 0.0 0
M  V30 7 Br -2.6204 -1.457 0.0 0
M  V30 8 C -3.9129 0.7755 0.0 0
M  V30 9 Br -2.6321 4.524 0.0 0
M  V30 10 C -3.9247 2.2796 0.0 0
M  V30 11 Br -5.2173 0.047 0.0 0
M  V30 12 C -5.229 3.0316 0.0 0
M  V30 13 O -6.5334 2.2913 0.0 0
M  V30 END ATOM
M  V30 BEGIN BOND
M  V30 1 1 1 2
M  V30 2 2 2 3
M  V30 3 1 2 4
M  V30 4 1 3 5
M  V30 5 1 3 6
M  V30 6 1 4 7
M  V30 7 2 4 8
M  V30 8 1 6 9
M  V30 9 2 6 10
M  V30 10 1 8 11
M  V30 11 1 10 12
M  V30 12 1 12 13
M  V30 13 1 8 10
M  V30 END BOND
M  V30 END CTAB
M  END
>  <Molecule Name>
2,3,4,5,6-Pentabromobenzyl alcohol

>  <Order (spectra)>
119

>  <NAME>
2,3,4,5,6-Pentabromobenzyl alcohol

>  <Molecular Formula>
C7H3OBr5

>  <Monoisotopic Mass>
497.61007

>  <SMILES>
OCC1=C(Br)C(Br)=C(Br)C(Br)=C1Br

>  <InChI>
InChI=1S/C7H3Br5O/c8-3-2(1-13)4(9)6(11)7(12)5(3)10/h13H,1H2

>  <InChIKey>
KKWHDMUCBWSKGL-UHFFFAOYSA-N

>  <Kingdom>
Organic compounds

>  <Superclass>
Benzenoids

>  <Class>
Benzene and substituted derivatives

>  <Subclass>
Benzyl alcohols

>  <Parent Level 1>
Benzyl alcohols

>  <Parent Level 2>


>  <Parent Level 3>


>  <cLogP>
4.6883

>  <cLogS>
-5.67

>  <Druglikeness>
-4.0356

>  <NP-class probability>
0.08

>  <SmilesFragFp 3>


>  <MS_READY_SMILES>
OCC1=C(Br)C(Br)=C(Br)C(Br)=C1Br

>  <MS_READY_InChI>
InChI=1S/C7H3Br5O/c8-3-2(1-13)4(9)6(11)7(12)5(3)10/h13H,1H2

>  <QSAR_READY_SMILES>
OCC1=C(Br)C(Br)=C(Br)C(Br)=C1Br

>  <QSAR_READY_InChI>
InChI=1S/C7H3Br5O/c8-3-2(1-13)4(9)6(11)7(12)5(3)10/h13H,1H2

>  <DTXSID>
DTXSID00370053

>  <DTXCID>
DTXCID40321089

>  <CASRN>
79415-41-1

>  <EXPOCAST_MEDIAN_EXPOSURE_PREDICTION_MG/KG-BW/DAY>
1.66E-07

>  <BIOCONCENTRATION_FACTOR_TEST_PRED>
274.157

>  <BOILING_POINT_DEGC_TEST_PRED>
410.298

>  <48HR_DAPHNIA_LC50_MOL/L_TEST_PRED>
3.47E-06

>  <DENSITY_G/CM^3_TEST_PRED>
2.9

>  <DEVTOX_TEST_PRED>
-

>  <96HR_FATHEAD_MINNOW_MOL/L_TEST_PRED>
3.78E-07

>  <FLASH_POINT_DEGC_TEST_PRED>
181.743

>  <MELTING_POINT_DEGC_TEST_PRED>
178.743

>  <AMES_MUTAGENICITY_TEST_PRED>
-0.013

>  <ORAL_RAT_LD50_MOL/KG_TEST_PRED>
0.000347536

>  <SURFACE_TENSION_DYN/CM_TEST_PRED>
-

>  <THERMAL_CONDUCTIVITY_MW/(M*K)_TEST_PRED>
114.747

>  <TETRAHYMENA_PYRIFORMIS_IGC50_MOL/L_TEST_PRED>
3.66E-06

>  <VISCOSITY_CP_CP_TEST_PRED>
33.8065

>  <VAPOR_PRESSURE_MMHG_TEST_PRED>
1.15E-07

>  <WATER_SOLUBILITY_MOL/L_TEST_PRED>
4.53E-07

>  <ATMOSPHERIC_HYDROXYLATION_RATE_(AOH)_CM3/MOLECULE*SEC_OPERA_PRED>
1.02E-11

>  <BIOCONCENTRATION_FACTOR_OPERA_PRED>
2771.71

>  <BIODEGRADATION_HALF_LIFE_DAYS_DAYS_OPERA_PRED>
15.214

>  <BOILING_POINT_DEGC_OPERA_PRED>
331.018

>  <HENRYS_LAW_ATM-M3/MOLE_OPERA_PRED>
0.00273098

>  <OPERA_KM_DAYS_OPERA_PRED>
0.106651

>  <OCTANOL_AIR_PARTITION_COEFF_LOGKOA_OPERA_PRED>
10.6561

>  <SOIL_ADSORPTION_COEFFICIENT_KOC_L/KG_OPERA_PRED>
10386.8

>  <OCTANOL_WATER_PARTITION_LOGP_OPERA_PRED>
4.05302

>  <MELTING_POINT_DEGC_OPERA_PRED>
163.381

>  <VAPOR_PRESSURE_MMHG_OPERA_PRED>
1.22E-05

>  <WATER_SOLUBILITY_MOL/L_OPERA_PRED>
4.07E-05

>  <Shape Index>
0.53846

>  <Molecular Flexibility>
0.24228

>  <Molecular Complexity>
0.73241

>  <Electronegative Atoms>
6

>  <Stereo Centers>
0

>  <Rotatable Bonds>
1

>  <Rings Closures>
1

>  <Aromatic Rings>
1

>  <Aromatic Atoms>
6

>  <Amides>
0

>  <Amines>
0

>  <Aromatic Nitrogens>
0

>  <Shape Index 2>
0.53846

>  <Molecular Flexibility 2>
0.24228

>  <Molecular Complexity 2>
0.73241

>  <Non-C/H Atoms>
6

>  <Electronegative Atoms 2>
6

>  <Stereo Centers 2>
0

>  <Rotatable Bonds 2>
1

>  <Rings Closures 2>
1

>  <Aromatic Rings 2>
1

>  <Aromatic Atoms 2>
6

>  <sp3-Atoms>
2

>  <Amides 2>
0

>  <Amines 2>
0

>  <Aromatic Nitrogens 2>
0

>  <Basic Nitrogens>
0

$$$$
2-Ethylhexyl 2,3,4,5-Tetrabromobenzoate
Actelion Java MolfileCreator 2.0

  0  0  0  0  0  0              0 V3000
M  V30 BEGIN CTAB
M  V30 COUNTS 21 21 0 0 0
M  V30 BEGIN ATOM
M  V30 1 Br 0.0 0.0 0.0 0
M  V30 2 C -0.0117 1.5067 0.0 0
M  V30 3 C 1.2713 2.2601 0.0 0
M  V30 4 C -1.3184 2.2719 0.0 0
M  V30 5 Br 2.5544 1.5185 0.0 0
M  V30 6 C 1.2595 3.7668 0.0 0
M  V30 7 Br -2.625 1.5302 0.0 0
M  V30 8 C -1.3301 3.7786 0.0 0
M  V30 9 Br 2.5426 4.5202 0.0 0
M  V30 10 C -0.047 4.5202 0.0 0
M  V30 11 C -2.6368 4.532 0.0 0
M  V30 12 O -2.6485 6.0387 0.0 0
M  V30 13 O -3.9434 3.7904 0.0 0
M  V30 14 C -5.2501 4.5438 0.0 0
M  V30 15 C -6.5567 3.8022 0.0 0 CFG=2
M  V30 16 C -7.8633 4.5555 0.0 0
M  V30 17 C -6.5685 2.3189 0.0 0
M  V30 18 C -9.17 3.8139 0.0 0
M  V30 19 C -5.2854 1.5773 0.0 0
M  V30 20 C -10.4766 4.5673 0.0 0
M  V30 21 C -11.7833 3.8257 0.0 0
M  V30 END ATOM
M  V30 BEGIN BOND
M  V30 1 1 1 2
M  V30 2 2 2 3
M  V30 3 1 2 4
M  V30 4 1 3 5
M  V30 5 1 3 6
M  V30 6 1 4 7
M  V30 7 2 4 8
M  V30 8 1 6 9
M  V30 9 2 6 10
M  V30 10 1 8 11
M  V30 11 2 11 12
M  V30 12 1 11 13
M  V30 13 1 13 14
M  V30 14 1 15 14 CFG=1
M  V30 15 1 15 16
M  V30 16 1 15 17
M  V30 17 1 16 18
M  V30 18 1 17 19
M  V30 19 1 18 20
M  V30 20 1 20 21
M  V30 21 1 8 10
M  V30 END BOND
M  V30 BEGIN COLLECTION
M  V30 MDLV30/STERAC1 ATOMS=(1 15)
M  V30 END COLLECTION
M  V30 END CTAB
M  END
>  <Molecule Name>
2-Ethylhexyl 2,3,4,5-Tetrabromobenzoate

>  <Order (spectra)>
120

>  <NAME>
2-Ethylhexyl 2,3,4,5-Tetrabromobenzoate

>  <Molecular Formula>
C15H18O2Br4

>  <Monoisotopic Mass>
545.804024

>  <SMILES>
CCCCC(CC)COC(=O)C1=C(Br)C(Br)=C(Br)C(Br)=C1

>  <InChI>
InChI=1S/C15H18Br4O2/c1-3-5-6-9(4-2)8-21-15(20)10-7-11(16)13(18)14(19)12(10)17/h7,9H,3-6,8H2,1-2H3/t9-/m0/s1

>  <InChIKey>
HVDXCGSGEQKWGB-UHFFFAOYSA-N

>  <Kingdom>
Organic compounds

>  <Superclass>
Benzenoids

>  <Class>
Benzene and substituted derivatives

>  <Subclass>
Benzoic acids and derivatives

>  <Parent Level 1>
Benzoic acid esters

>  <Parent Level 2>


>  <Parent Level 3>


>  <cLogP>
7.37

>  <cLogS>
-6.903

>  <Druglikeness>
-7.4514

>  <NP-class probability>
0.48

>  <SmilesFragFp 3>


>  <MS_READY_SMILES>
CCCCC(CC)COC(=O)C1=C(Br)C(Br)=C(Br)C(Br)=C1

>  <MS_READY_InChI>
InChI=1S/C15H18Br4O2/c1-3-5-6-9(4-2)8-21-15(20)10-7-11(16)13(18)14(19)12(10)17/h7,9H,3-6,8H2,1-2H3/t9-/m0/s1

>  <QSAR_READY_SMILES>
CCCCC(CC)COC(=O)C1=C(Br)C(Br)=C(Br)C(Br)=C1

>  <QSAR_READY_InChI>
InChI=1S/C15H18Br4O2/c1-3-5-6-9(4-2)8-21-15(20)10-7-11(16)13(18)14(19)12(10)17/h7,9H,3-6,8H2,1-2H3/t9-/m0/s1

>  <DTXSID>
DTXSID9052686

>  <DTXCID>
DTXCID3031284

>  <CASRN>
183658-27-7

>  <EXPOCAST_MEDIAN_EXPOSURE_PREDICTION_MG/KG-BW/DAY>
8.14E-06

>  <BIOCONCENTRATION_FACTOR_TEST_PRED>
230.675

>  <BOILING_POINT_DEGC_TEST_PRED>
434.389

>  <48HR_DAPHNIA_LC50_MOL/L_TEST_PRED>
1.44E-07

>  <DENSITY_G/CM^3_TEST_PRED>
2.225

>  <DEVTOX_TEST_PRED>
-

>  <96HR_FATHEAD_MINNOW_MOL/L_TEST_PRED>
1.11E-07

>  <FLASH_POINT_DEGC_TEST_PRED>
217.691

>  <MELTING_POINT_DEGC_TEST_PRED>
147.508

>  <AMES_MUTAGENICITY_TEST_PRED>
0.026

>  <ORAL_RAT_LD50_MOL/KG_TEST_PRED>
0.000414954

>  <SURFACE_TENSION_DYN/CM_TEST_PRED>
-

>  <THERMAL_CONDUCTIVITY_MW/(M*K)_TEST_PRED>
118.895

>  <TETRAHYMENA_PYRIFORMIS_IGC50_MOL/L_TEST_PRED>
1.14E-07

>  <VISCOSITY_CP_CP_TEST_PRED>
46.4515

>  <VAPOR_PRESSURE_MMHG_TEST_PRED>
1.13E-07

>  <WATER_SOLUBILITY_MOL/L_TEST_PRED>
2.02E-08

>  <ATMOSPHERIC_HYDROXYLATION_RATE_(AOH)_CM3/MOLECULE*SEC_OPERA_PRED>
1.37E-11

>  <BIOCONCENTRATION_FACTOR_OPERA_PRED>
1656.22

>  <BIODEGRADATION_HALF_LIFE_DAYS_DAYS_OPERA_PRED>
3.35802

>  <BOILING_POINT_DEGC_OPERA_PRED>
379.467

>  <HENRYS_LAW_ATM-M3/MOLE_OPERA_PRED>
0.000734389

>  <OPERA_KM_DAYS_OPERA_PRED>
0.247346

>  <OCTANOL_AIR_PARTITION_COEFF_LOGKOA_OPERA_PRED>
11.5737

>  <SOIL_ADSORPTION_COEFFICIENT_KOC_L/KG_OPERA_PRED>
12522

>  <OCTANOL_WATER_PARTITION_LOGP_OPERA_PRED>
6.18942

>  <MELTING_POINT_DEGC_OPERA_PRED>
41.9394

>  <VAPOR_PRESSURE_MMHG_OPERA_PRED>
9.52E-07

>  <WATER_SOLUBILITY_MOL/L_OPERA_PRED>
2.72E-06

>  <Shape Index>
0.61905

>  <Molecular Flexibility>
0.51979

>  <Molecular Complexity>
0.75255

>  <Electronegative Atoms>
6

>  <Stereo Centers>
1

>  <Rotatable Bonds>
8

>  <Rings Closures>
1

>  <Aromatic Rings>
1

>  <Aromatic Atoms>
6

>  <Amides>
0

>  <Amines>
0

>  <Aromatic Nitrogens>
0

>  <Shape Index 2>
0.61905

>  <Molecular Flexibility 2>
0.51979

>  <Molecular Complexity 2>
0.75255

>  <Non-C/H Atoms>
6

>  <Electronegative Atoms 2>
6

>  <Stereo Centers 2>
1

>  <Rotatable Bonds 2>
8

>  <Rings Closures 2>
1

>  <Aromatic Rings 2>
1

>  <Aromatic Atoms 2>
6

>  <sp3-Atoms>
9

>  <Amides 2>
0

>  <Amines 2>
0

>  <Aromatic Nitrogens 2>
0

>  <Basic Nitrogens>
0

$$$$
Lilial
Actelion Java MolfileCreator 2.0

  0  0  0  0  0  0              0 V3000
M  V30 BEGIN CTAB
M  V30 COUNTS 15 15 0 0 0
M  V30 BEGIN ATOM
M  V30 1 O 0.0 0.0 0.0 0
M  V30 2 C -1.3097 0.7551 0.0 0
M  V30 3 C -2.6194 0.0235 0.0 0 CFG=2
M  V30 4 C -3.9291 0.7787 0.0 0
M  V30 5 C -2.6312 -1.4631 0.0 0
M  V30 6 C -5.2388 0.0471 0.0 0
M  V30 7 C -6.5485 0.8023 0.0 0
M  V30 8 C -5.2506 -1.4395 0.0 0
M  V30 9 C -7.8582 0.0707 0.0 0
M  V30 10 C -6.5603 -2.171 0.0 0
M  V30 11 C -7.87 -1.4159 0.0 0
M  V30 12 C -9.1797 -2.1474 0.0 0
M  V30 13 C -8.4482 -3.4335 0.0 0
M  V30 14 C -10.4895 -2.879 0.0 0
M  V30 15 C -9.9349 -0.8377 0.0 0
M  V30 END ATOM
M  V30 BEGIN BOND
M  V30 1 2 1 2
M  V30 2 1 2 3
M  V30 3 1 3 4
M  V30 4 1 3 5 CFG=1
M  V30 5 1 4 6
M  V30 6 2 6 7
M  V30 7 1 6 8
M  V30 8 1 7 9
M  V30 9 2 8 10
M  V30 10 2 9 11
M  V30 11 1 11 12
M  V30 12 1 12 13
M  V30 13 1 12 14
M  V30 14 1 12 15
M  V30 15 1 10 11
M  V30 END BOND
M  V30 BEGIN COLLECTION
M  V30 MDLV30/STERAC1 ATOMS=(1 3)
M  V30 END COLLECTION
M  V30 END CTAB
M  END
>  <Molecule Name>
Lilial

>  <Order (spectra)>
131

>  <NAME>
Lilial

>  <Molecular Formula>
C14H20O

>  <Monoisotopic Mass>
204.151415

>  <SMILES>
CC(CC1=CC=C(C=C1)C(C)(C)C)C=O

>  <InChI>
InChI=1S/C14H20O/c1-11(10-15)9-12-5-7-13(8-6-12)14(2,3)4/h5-8,10-11H,9H2,1-4H3/t11-/m0/s1

>  <InChIKey>
SDQFDHOLCGWZPU-UHFFFAOYSA-N

>  <Kingdom>
Organic compounds

>  <Superclass>
Benzenoids

>  <Class>
Benzene and substituted derivatives

>  <Subclass>
Phenylpropanes

>  <Parent Level 1>
Phenylpropanes

>  <Parent Level 2>


>  <Parent Level 3>


>  <cLogP>
3.5347

>  <cLogS>
-3.417

>  <Druglikeness>
-8.9243

>  <NP-class probability>
0.55

>  <SmilesFragFp 3>


>  <MS_READY_SMILES>
CC(CC1=CC=C(C=C1)C(C)(C)C)C=O

>  <MS_READY_InChI>
InChI=1S/C14H20O/c1-11(10-15)9-12-5-7-13(8-6-12)14(2,3)4/h5-8,10-11H,9H2,1-4H3/t11-/m0/s1

>  <QSAR_READY_SMILES>
CC(CC1=CC=C(C=C1)C(C)(C)C)C=O

>  <QSAR_READY_InChI>
InChI=1S/C14H20O/c1-11(10-15)9-12-5-7-13(8-6-12)14(2,3)4/h5-8,10-11H,9H2,1-4H3/t11-/m0/s1

>  <DTXSID>
DTXSID9026500

>  <DTXCID>
DTXCID606500

>  <CASRN>
80-54-6

>  <EXPOCAST_MEDIAN_EXPOSURE_PREDICTION_MG/KG-BW/DAY>
1.25E-05

>  <BIOCONCENTRATION_FACTOR_TEST_PRED>
-

>  <BOILING_POINT_DEGC_TEST_PRED>
282.346

>  <48HR_DAPHNIA_LC50_MOL/L_TEST_PRED>
7.23E-06

>  <DENSITY_G/CM^3_TEST_PRED>
0.918

>  <DEVTOX_TEST_PRED>
0.647

>  <96HR_FATHEAD_MINNOW_MOL/L_TEST_PRED>
5.45E-06

>  <FLASH_POINT_DEGC_TEST_PRED>
121.996

>  <MELTING_POINT_DEGC_TEST_PRED>
15.604

>  <AMES_MUTAGENICITY_TEST_PRED>
0.074

>  <ORAL_RAT_LD50_MOL/KG_TEST_PRED>
0.0107399

>  <SURFACE_TENSION_DYN/CM_TEST_PRED>
30.286

>  <THERMAL_CONDUCTIVITY_MW/(M*K)_TEST_PRED>
123.174

>  <TETRAHYMENA_PYRIFORMIS_IGC50_MOL/L_TEST_PRED>
2.79E-05

>  <VISCOSITY_CP_CP_TEST_PRED>
4.32514

>  <VAPOR_PRESSURE_MMHG_TEST_PRED>
0.00279898

>  <WATER_SOLUBILITY_MOL/L_TEST_PRED>
0.000154525

>  <ATMOSPHERIC_HYDROXYLATION_RATE_(AOH)_CM3/MOLECULE*SEC_OPERA_PRED>
1.97E-11

>  <BIOCONCENTRATION_FACTOR_OPERA_PRED>
678.369

>  <BIODEGRADATION_HALF_LIFE_DAYS_DAYS_OPERA_PRED>
3.72259

>  <BOILING_POINT_DEGC_OPERA_PRED>
278.391

>  <HENRYS_LAW_ATM-M3/MOLE_OPERA_PRED>
0.000289012

>  <OPERA_KM_DAYS_OPERA_PRED>
0.503024

>  <OCTANOL_AIR_PARTITION_COEFF_LOGKOA_OPERA_PRED>
6.9038

>  <SOIL_ADSORPTION_COEFFICIENT_KOC_L/KG_OPERA_PRED>
287.019

>  <OCTANOL_WATER_PARTITION_LOGP_OPERA_PRED>
3.94232

>  <MELTING_POINT_DEGC_OPERA_PRED>
21.5247

>  <VAPOR_PRESSURE_MMHG_OPERA_PRED>
0.193817

>  <WATER_SOLUBILITY_MOL/L_OPERA_PRED>
0.000221799

>  <Shape Index>
0.66667

>  <Molecular Flexibility>
0.64691

>  <Molecular Complexity>
0.52698

>  <Electronegative Atoms>
1

>  <Stereo Centers>
1

>  <Rotatable Bonds>
4

>  <Rings Closures>
1

>  <Aromatic Rings>
1

>  <Aromatic Atoms>
6

>  <Amides>
0

>  <Amines>
0

>  <Aromatic Nitrogens>
0

>  <Shape Index 2>
0.66667

>  <Molecular Flexibility 2>
0.64691

>  <Molecular Complexity 2>
0.52698

>  <Non-C/H Atoms>
1

>  <Electronegative Atoms 2>
1

>  <Stereo Centers 2>
1

>  <Rotatable Bonds 2>
4

>  <Rings Closures 2>
1

>  <Aromatic Rings 2>
1

>  <Aromatic Atoms 2>
6

>  <sp3-Atoms>
7

>  <Amides 2>
0

>  <Amines 2>
0

>  <Aromatic Nitrogens 2>
0

>  <Basic Nitrogens>
0

$$$$
4-Methoxybenzyl alcohol
Actelion Java MolfileCreator 2.0

  0  0  0  0  0  0              0 V3000
M  V30 BEGIN CTAB
M  V30 COUNTS 10 10 0 0 0
M  V30 BEGIN ATOM
M  V30 1 O 0.0 0.0 0.0 0
M  V30 2 C 1.2951 -0.7485 0.0 0
M  V30 3 C -1.3188 -0.7485 0.0 0
M  V30 4 C 1.2832 -2.2456 0.0 0
M  V30 5 C 2.5902 0.0118 0.0 0
M  V30 6 C 2.5783 -2.9942 0.0 0
M  V30 7 C 3.8853 -0.7366 0.0 0
M  V30 8 C 3.8734 -2.2337 0.0 0
M  V30 9 C 5.1686 -2.9823 0.0 0
M  V30 10 O 6.4637 -2.2219 0.0 0
M  V30 END ATOM
M  V30 BEGIN BOND
M  V30 1 1 1 2
M  V30 2 1 1 3
M  V30 3 2 2 4
M  V30 4 1 2 5
M  V30 5 1 4 6
M  V30 6 2 5 7
M  V30 7 2 6 8
M  V30 8 1 8 9
M  V30 9 1 9 10
M  V30 10 1 7 8
M  V30 END BOND
M  V30 END CTAB
M  END
>  <Molecule Name>
4-Methoxybenzyl alcohol

>  <Order (spectra)>
135

>  <NAME>
4-Methoxybenzyl alcohol

>  <Molecular Formula>
C8H10O2

>  <Monoisotopic Mass>
138.06808

>  <SMILES>
COC1=CC=C(CO)C=C1

>  <InChI>
InChI=1S/C8H10O2/c1-10-8-4-2-7(6-9)3-5-8/h2-5,9H,6H2,1H3

>  <InChIKey>
MSHFRERJPWKJFX-UHFFFAOYSA-N

>  <Kingdom>
Organic compounds

>  <Superclass>
Benzenoids

>  <Class>
Benzene and substituted derivatives

>  <Subclass>
Benzyl alcohols

>  <Parent Level 1>
Benzyl alcohols

>  <Parent Level 2>


>  <Parent Level 3>


>  <cLogP>
0.9923

>  <cLogS>
-1.518

>  <Druglikeness>
-1.9576

>  <NP-class probability>
-

>  <SmilesFragFp 3>


>  <MS_READY_SMILES>
COC1=CC=C(CO)C=C1

>  <MS_READY_InChI>
InChI=1S/C8H10O2/c1-10-8-4-2-7(6-9)3-5-8/h2-5,9H,6H2,1H3

>  <QSAR_READY_SMILES>
COC1=CC=C(CO)C=C1

>  <QSAR_READY_InChI>
InChI=1S/C8H10O2/c1-10-8-4-2-7(6-9)3-5-8/h2-5,9H,6H2,1H3

>  <DTXSID>
DTXSID6044357

>  <DTXCID>
DTXCID4024357

>  <CASRN>
105-13-5

>  <EXPOCAST_MEDIAN_EXPOSURE_PREDICTION_MG/KG-BW/DAY>
5.89E-05

>  <BIOCONCENTRATION_FACTOR_TEST_PRED>
5.01187

>  <BOILING_POINT_DEGC_TEST_PRED>
251.708

>  <48HR_DAPHNIA_LC50_MOL/L_TEST_PRED>
0.000160694

>  <DENSITY_G/CM^3_TEST_PRED>
1.105

>  <DEVTOX_TEST_PRED>
0.462

>  <96HR_FATHEAD_MINNOW_MOL/L_TEST_PRED>
0.000716143

>  <FLASH_POINT_DEGC_TEST_PRED>
106.936

>  <MELTING_POINT_DEGC_TEST_PRED>
54.623

>  <AMES_MUTAGENICITY_TEST_PRED>
0.215

>  <ORAL_RAT_LD50_MOL/KG_TEST_PRED>
0.0060256

>  <SURFACE_TENSION_DYN/CM_TEST_PRED>
35.666

>  <THERMAL_CONDUCTIVITY_MW/(M*K)_TEST_PRED>
154.856

>  <TETRAHYMENA_PYRIFORMIS_IGC50_MOL/L_TEST_PRED>
0.00395367

>  <VISCOSITY_CP_CP_TEST_PRED>
5.62341

>  <VAPOR_PRESSURE_MMHG_TEST_PRED>
0.0186638

>  <WATER_SOLUBILITY_MOL/L_TEST_PRED>
0.0181134

>  <ATMOSPHERIC_HYDROXYLATION_RATE_(AOH)_CM3/MOLECULE*SEC_OPERA_PRED>
6.24E-11

>  <BIOCONCENTRATION_FACTOR_OPERA_PRED>
5.30629

>  <BIODEGRADATION_HALF_LIFE_DAYS_DAYS_OPERA_PRED>
3.55568

>  <BOILING_POINT_DEGC_OPERA_PRED>
258.71

>  <HENRYS_LAW_ATM-M3/MOLE_OPERA_PRED>
2.36E-09

>  <OPERA_KM_DAYS_OPERA_PRED>
0.1059

>  <OCTANOL_AIR_PARTITION_COEFF_LOGKOA_OPERA_PRED>
6.39934

>  <SOIL_ADSORPTION_COEFFICIENT_KOC_L/KG_OPERA_PRED>
43.4148

>  <OCTANOL_WATER_PARTITION_LOGP_OPERA_PRED>
1.10034

>  <MELTING_POINT_DEGC_OPERA_PRED>
25.1119

>  <VAPOR_PRESSURE_MMHG_OPERA_PRED>
0.0176663

>  <WATER_SOLUBILITY_MOL/L_OPERA_PRED>
0.0145776

>  <Shape Index>
0.8

>  <Molecular Flexibility>
0.45398

>  <Molecular Complexity>
0.57807

>  <Electronegative Atoms>
2

>  <Stereo Centers>
0

>  <Rotatable Bonds>
2

>  <Rings Closures>
1

>  <Aromatic Rings>
1

>  <Aromatic Atoms>
6

>  <Amides>
0

>  <Amines>
0

>  <Aromatic Nitrogens>
0

>  <Shape Index 2>
0.8

>  <Molecular Flexibility 2>
0.45398

>  <Molecular Complexity 2>
0.57807

>  <Non-C/H Atoms>
2

>  <Electronegative Atoms 2>
2

>  <Stereo Centers 2>
0

>  <Rotatable Bonds 2>
2

>  <Rings Closures 2>
1

>  <Aromatic Rings 2>
1

>  <Aromatic Atoms 2>
6

>  <sp3-Atoms>
4

>  <Amides 2>
0

>  <Amines 2>
0

>  <Aromatic Nitrogens 2>
0

>  <Basic Nitrogens>
0

$$$$
Methyleugenol
Actelion Java MolfileCreator 2.0

  0  0  0  0  0  0              0 V3000
M  V30 BEGIN CTAB
M  V30 COUNTS 13 13 0 0 0
M  V30 BEGIN ATOM
M  V30 1 O 0.0 0.0 0.0 0
M  V30 2 C -1.3052 0.7525 0.0 0
M  V30 3 C 1.2816 0.7525 0.0 0
M  V30 4 C -1.3169 2.2576 0.0 0
M  V30 5 C -2.6104 0.0235 0.0 0
M  V30 6 O -0.0352 3.0101 0.0 0
M  V30 7 C -2.6221 3.0101 0.0 0
M  V30 8 C -3.9156 0.776 0.0 0
M  V30 9 C -0.047 4.5152 0.0 0
M  V30 10 C -3.9273 2.2694 0.0 0
M  V30 11 C -5.2208 0.0352 0.0 0
M  V30 12 C -6.526 0.7878 0.0 0
M  V30 13 C -7.8312 0.047 0.0 0
M  V30 END ATOM
M  V30 BEGIN BOND
M  V30 1 1 1 2
M  V30 2 1 1 3
M  V30 3 2 2 4
M  V30 4 1 2 5
M  V30 5 1 4 6
M  V30 6 1 4 7
M  V30 7 2 5 8
M  V30 8 1 6 9
M  V30 9 2 7 10
M  V30 10 1 8 11
M  V30 11 1 11 12
M  V30 12 2 12 13
M  V30 13 1 8 10
M  V30 END BOND
M  V30 END CTAB
M  END
>  <Molecule Name>
Methyleugenol

>  <Order (spectra)>
136

>  <NAME>
Methyleugenol

>  <Molecular Formula>
C11H14O2

>  <Monoisotopic Mass>
178.09938

>  <SMILES>
COC1=CC=C(CC=C)C=C1OC

>  <InChI>
InChI=1S/C11H14O2/c1-4-5-9-6-7-10(12-2)11(8-9)13-3/h4,6-8H,1,5H2,2-3H3

>  <InChIKey>
ZYEMGPIYFIJGTP-UHFFFAOYSA-N

>  <Kingdom>
Organic compounds

>  <Superclass>
Benzenoids

>  <Class>
Benzene and substituted derivatives

>  <Subclass>
Methoxybenzenes

>  <Parent Level 1>
Dimethoxybenzenes

>  <Parent Level 2>


>  <Parent Level 3>


>  <cLogP>
2.548

>  <cLogS>
-2.364

>  <Druglikeness>
-4.7336

>  <NP-class probability>
0.97

>  <SmilesFragFp 3>


>  <MS_READY_SMILES>
COC1=CC=C(CC=C)C=C1OC

>  <MS_READY_InChI>
InChI=1S/C11H14O2/c1-4-5-9-6-7-10(12-2)11(8-9)13-3/h4,6-8H,1,5H2,2-3H3

>  <QSAR_READY_SMILES>
COC1=CC=C(CC=C)C=C1OC

>  <QSAR_READY_InChI>
InChI=1S/C11H14O2/c1-4-5-9-6-7-10(12-2)11(8-9)13-3/h4,6-8H,1,5H2,2-3H3

>  <DTXSID>
DTXSID5025607

>  <DTXCID>
DTXCID505607

>  <CASRN>
93-15-2

>  <EXPOCAST_MEDIAN_EXPOSURE_PREDICTION_MG/KG-BW/DAY>
1.29E-04

>  <BIOCONCENTRATION_FACTOR_TEST_PRED>
33.4965

>  <BOILING_POINT_DEGC_TEST_PRED>
260.665

>  <48HR_DAPHNIA_LC50_MOL/L_TEST_PRED>
0.000034435

>  <DENSITY_G/CM^3_TEST_PRED>
1.012

>  <DEVTOX_TEST_PRED>
0.662

>  <96HR_FATHEAD_MINNOW_MOL/L_TEST_PRED>
7.96E-05

>  <FLASH_POINT_DEGC_TEST_PRED>
103.906

>  <MELTING_POINT_DEGC_TEST_PRED>
6.641

>  <AMES_MUTAGENICITY_TEST_PRED>
0.05

>  <ORAL_RAT_LD50_MOL/KG_TEST_PRED>
0.0148252

>  <SURFACE_TENSION_DYN/CM_TEST_PRED>
33.181

>  <THERMAL_CONDUCTIVITY_MW/(M*K)_TEST_PRED>
139.967

>  <TETRAHYMENA_PYRIFORMIS_IGC50_MOL/L_TEST_PRED>
0.000399025

>  <VISCOSITY_CP_CP_TEST_PRED>
2.67917

>  <VAPOR_PRESSURE_MMHG_TEST_PRED>
0.0193197

>  <WATER_SOLUBILITY_MOL/L_TEST_PRED>
0.0037325

>  <ATMOSPHERIC_HYDROXYLATION_RATE_(AOH)_CM3/MOLECULE*SEC_OPERA_PRED>
7.48E-11

>  <BIOCONCENTRATION_FACTOR_OPERA_PRED>
18.9366

>  <BIODEGRADATION_HALF_LIFE_DAYS_DAYS_OPERA_PRED>
4.30914

>  <BOILING_POINT_DEGC_OPERA_PRED>
262.471

>  <HENRYS_LAW_ATM-M3/MOLE_OPERA_PRED>
9.93E-05

>  <OPERA_KM_DAYS_OPERA_PRED>
1.82122

>  <OCTANOL_AIR_PARTITION_COEFF_LOGKOA_OPERA_PRED>
5.77822

>  <SOIL_ADSORPTION_COEFFICIENT_KOC_L/KG_OPERA_PRED>
1435.28

>  <OCTANOL_WATER_PARTITION_LOGP_OPERA_PRED>
2.44004

>  <MELTING_POINT_DEGC_OPERA_PRED>
30.627

>  <VAPOR_PRESSURE_MMHG_OPERA_PRED>
0.0119647

>  <WATER_SOLUBILITY_MOL/L_OPERA_PRED>
0.0028078

>  <Shape Index>
0.69231

>  <Molecular Flexibility>
0.41049

>  <Molecular Complexity>
0.67089

>  <Electronegative Atoms>
2

>  <Stereo Centers>
0

>  <Rotatable Bonds>
4

>  <Rings Closures>
1

>  <Aromatic Rings>
1

>  <Aromatic Atoms>
6

>  <Amides>
0

>  <Amines>
0

>  <Aromatic Nitrogens>
0

>  <Shape Index 2>
0.69231

>  <Molecular Flexibility 2>
0.41049

>  <Molecular Complexity 2>
0.67089

>  <Non-C/H Atoms>
2

>  <Electronegative Atoms 2>
2

>  <Stereo Centers 2>
0

>  <Rotatable Bonds 2>
4

>  <Rings Closures 2>
1

>  <Aromatic Rings 2>
1

>  <Aromatic Atoms 2>
6

>  <sp3-Atoms>
5

>  <Amides 2>
0

>  <Amines 2>
0

>  <Aromatic Nitrogens 2>
0

>  <Basic Nitrogens>
0

$$$$
Benzyl alcohol
Actelion Java MolfileCreator 2.0

  0  0  0  0  0  0              0 V3000
M  V30 BEGIN CTAB
M  V30 COUNTS 8 8 0 0 0
M  V30 BEGIN ATOM
M  V30 1 O 0.0 0.0 0.0 0
M  V30 2 C -1.3086 0.7545 0.0 0
M  V30 3 C -2.6173 0.0235 0.0 0
M  V30 4 C -3.926 0.7781 0.0 0
M  V30 5 C -2.6291 -1.4619 0.0 0
M  V30 6 C -5.2347 0.0471 0.0 0
M  V30 7 C -3.9378 -2.1929 0.0 0
M  V30 8 C -5.2465 -1.4383 0.0 0
M  V30 END ATOM
M  V30 BEGIN BOND
M  V30 1 1 1 2
M  V30 2 1 2 3
M  V30 3 2 3 4
M  V30 4 1 3 5
M  V30 5 1 4 6
M  V30 6 2 5 7
M  V30 7 2 6 8
M  V30 8 1 7 8
M  V30 END BOND
M  V30 END CTAB
M  END
>  <Molecule Name>
Benzyl alcohol

>  <Order (spectra)>
138

>  <NAME>
Benzyl alcohol

>  <Molecular Formula>
C7H8O

>  <Monoisotopic Mass>
108.057515

>  <SMILES>
OCC1=CC=CC=C1

>  <InChI>
InChI=1S/C7H8O/c8-6-7-4-2-1-3-5-7/h1-5,8H,6H2

>  <InChIKey>
WVDDGKGOMKODPV-UHFFFAOYSA-N

>  <Kingdom>
Organic compounds

>  <Superclass>
Benzenoids

>  <Class>
Benzene and substituted derivatives

>  <Subclass>
Benzyl alcohols

>  <Parent Level 1>
Benzyl alcohols

>  <Parent Level 2>


>  <Parent Level 3>


>  <cLogP>
1.0623

>  <cLogS>
-1.5

>  <Druglikeness>
-2.2456

>  <NP-class probability>
-

>  <SmilesFragFp 3>


>  <MS_READY_SMILES>
OCC1=CC=CC=C1

>  <MS_READY_InChI>
InChI=1S/C7H8O/c8-6-7-4-2-1-3-5-7/h1-5,8H,6H2

>  <QSAR_READY_SMILES>
OCC1=CC=CC=C1

>  <QSAR_READY_InChI>
InChI=1S/C7H8O/c8-6-7-4-2-1-3-5-7/h1-5,8H,6H2

>  <DTXSID>
DTXSID5020152

>  <DTXCID>
DTXCID70152

>  <CASRN>
100-51-6

>  <EXPOCAST_MEDIAN_EXPOSURE_PREDICTION_MG/KG-BW/DAY>
1.19E-04

>  <BIOCONCENTRATION_FACTOR_TEST_PRED>
6.16

>  <BOILING_POINT_DEGC_TEST_PRED>
207.52

>  <48HR_DAPHNIA_LC50_MOL/L_TEST_PRED>
0.000295121

>  <DENSITY_G/CM^3_TEST_PRED>
1.04

>  <DEVTOX_TEST_PRED>
0.24

>  <96HR_FATHEAD_MINNOW_MOL/L_TEST_PRED>
0.000630957

>  <FLASH_POINT_DEGC_TEST_PRED>
91.77

>  <MELTING_POINT_DEGC_TEST_PRED>
9.7

>  <AMES_MUTAGENICITY_TEST_PRED>
0.23

>  <ORAL_RAT_LD50_MOL/KG_TEST_PRED>
0.00416869

>  <SURFACE_TENSION_DYN/CM_TEST_PRED>
38.36

>  <THERMAL_CONDUCTIVITY_MW/(M*K)_TEST_PRED>
151.99

>  <TETRAHYMENA_PYRIFORMIS_IGC50_MOL/L_TEST_PRED>
0.00446684

>  <VISCOSITY_CP_CP_TEST_PRED>
4.46684

>  <VAPOR_PRESSURE_MMHG_TEST_PRED>
0.223872

>  <WATER_SOLUBILITY_MOL/L_TEST_PRED>
0.467735

>  <ATMOSPHERIC_HYDROXYLATION_RATE_(AOH)_CM3/MOLECULE*SEC_OPERA_PRED>
2.29E-11

>  <BIOCONCENTRATION_FACTOR_OPERA_PRED>
6.25002

>  <BIODEGRADATION_HALF_LIFE_DAYS_DAYS_OPERA_PRED>
6.59692

>  <BOILING_POINT_DEGC_OPERA_PRED>
205.218

>  <HENRYS_LAW_ATM-M3/MOLE_OPERA_PRED>
3.46E-07

>  <OPERA_KM_DAYS_OPERA_PRED>
0.173228

>  <OCTANOL_AIR_PARTITION_COEFF_LOGKOA_OPERA_PRED>
4.97127

>  <SOIL_ADSORPTION_COEFFICIENT_KOC_L/KG_OPERA_PRED>
12.6442

>  <OCTANOL_WATER_PARTITION_LOGP_OPERA_PRED>
1.10165

>  <MELTING_POINT_DEGC_OPERA_PRED>
-14.59

>  <VAPOR_PRESSURE_MMHG_OPERA_PRED>
0.0947063

>  <WATER_SOLUBILITY_MOL/L_OPERA_PRED>
0.389972

>  <Shape Index>
0.75

>  <Molecular Flexibility>
0.41559

>  <Molecular Complexity>
0.54931

>  <Electronegative Atoms>
1

>  <Stereo Centers>
0

>  <Rotatable Bonds>
1

>  <Rings Closures>
1

>  <Aromatic Rings>
1

>  <Aromatic Atoms>
6

>  <Amides>
0

>  <Amines>
0

>  <Aromatic Nitrogens>
0

>  <Shape Index 2>
0.75

>  <Molecular Flexibility 2>
0.41559

>  <Molecular Complexity 2>
0.54931

>  <Non-C/H Atoms>
1

>  <Electronegative Atoms 2>
1

>  <Stereo Centers 2>
0

>  <Rotatable Bonds 2>
1

>  <Rings Closures 2>
1

>  <Aromatic Rings 2>
1

>  <Aromatic Atoms 2>
6

>  <sp3-Atoms>
2

>  <Amides 2>
0

>  <Amines 2>
0

>  <Aromatic Nitrogens 2>
0

>  <Basic Nitrogens>
0

$$$$
Benzyl benzoate
Actelion Java MolfileCreator 2.0

  0  0  0  0  0  0              0 V3000
M  V30 BEGIN CTAB
M  V30 COUNTS 16 17 0 0 0
M  V30 BEGIN ATOM
M  V30 1 O 0.0 0.0 0.0 0
M  V30 2 C -1.3066 0.7534 0.0 0
M  V30 3 O -2.6133 0.0235 0.0 0
M  V30 4 C -1.3184 2.2602 0.0 0
M  V30 5 C -3.92 0.7769 0.0 0
M  V30 6 C -0.0353 3.0136 0.0 0
M  V30 7 C -2.6251 3.0136 0.0 0
M  V30 8 C -5.2267 0.047 0.0 0
M  V30 9 C -0.047 4.5204 0.0 0
M  V30 10 C -2.6369 4.5204 0.0 0
M  V30 11 C -6.5334 0.8004 0.0 0
M  V30 12 C -5.2385 -1.4361 0.0 0
M  V30 13 C -1.3537 5.2738 0.0 0
M  V30 14 C -7.8401 0.0706 0.0 0
M  V30 15 C -6.5452 -2.166 0.0 0
M  V30 16 C -7.8519 -1.4126 0.0 0
M  V30 END ATOM
M  V30 BEGIN BOND
M  V30 1 2 1 2
M  V30 2 1 2 3
M  V30 3 1 2 4
M  V30 4 1 3 5
M  V30 5 2 4 6
M  V30 6 1 4 7
M  V30 7 1 5 8
M  V30 8 1 6 9
M  V30 9 2 7 10
M  V30 10 2 8 11
M  V30 11 1 8 12
M  V30 12 2 9 13
M  V30 13 1 11 14
M  V30 14 2 12 15
M  V30 15 2 14 16
M  V30 16 1 10 13
M  V30 17 1 15 16
M  V30 END BOND
M  V30 END CTAB
M  END
>  <Molecule Name>
Benzyl benzoate

>  <Order (spectra)>
140

>  <NAME>
Benzyl benzoate

>  <Molecular Formula>
C14H12O2

>  <Monoisotopic Mass>
212.08373

>  <SMILES>
O=C(OCC1=CC=CC=C1)C1=CC=CC=C1

>  <InChI>
InChI=1S/C14H12O2/c15-14(13-9-5-2-6-10-13)16-11-12-7-3-1-4-8-12/h1-10H,11H2

>  <InChIKey>
SESFRYSPDFLNCH-UHFFFAOYSA-N

>  <Kingdom>
Organic compounds

>  <Superclass>
Benzenoids

>  <Class>
Benzene and substituted derivatives

>  <Subclass>
Benzoic acids and derivatives

>  <Parent Level 1>
Benzoic acid esters

>  <Parent Level 2>


>  <Parent Level 3>


>  <cLogP>
2.9907

>  <cLogS>
-3.08

>  <Druglikeness>
-1.5588

>  <NP-class probability>
0.92

>  <SmilesFragFp 3>


>  <MS_READY_SMILES>
O=C(OCC1=CC=CC=C1)C1=CC=CC=C1

>  <MS_READY_InChI>
InChI=1S/C14H12O2/c15-14(13-9-5-2-6-10-13)16-11-12-7-3-1-4-8-12/h1-10H,11H2

>  <QSAR_READY_SMILES>
O=C(OCC1=CC=CC=C1)C1=CC=CC=C1

>  <QSAR_READY_InChI>
InChI=1S/C14H12O2/c15-14(13-9-5-2-6-10-13)16-11-12-7-3-1-4-8-12/h1-10H,11H2

>  <DTXSID>
DTXSID8029153

>  <DTXCID>
DTXCID809153

>  <CASRN>
120-51-4

>  <EXPOCAST_MEDIAN_EXPOSURE_PREDICTION_MG/KG-BW/DAY>
2.64E-04

>  <BIOCONCENTRATION_FACTOR_TEST_PRED>
23.56

>  <BOILING_POINT_DEGC_TEST_PRED>
314.35

>  <48HR_DAPHNIA_LC50_MOL/L_TEST_PRED>
3.31E-05

>  <DENSITY_G/CM^3_TEST_PRED>
1.14

>  <DEVTOX_TEST_PRED>
0.45

>  <96HR_FATHEAD_MINNOW_MOL/L_TEST_PRED>
8.51E-06

>  <FLASH_POINT_DEGC_TEST_PRED>
157.56

>  <MELTING_POINT_DEGC_TEST_PRED>
53.84

>  <AMES_MUTAGENICITY_TEST_PRED>
-0.03

>  <ORAL_RAT_LD50_MOL/KG_TEST_PRED>
0.0154882

>  <SURFACE_TENSION_DYN/CM_TEST_PRED>
39.93

>  <THERMAL_CONDUCTIVITY_MW/(M*K)_TEST_PRED>
141.33

>  <TETRAHYMENA_PYRIFORMIS_IGC50_MOL/L_TEST_PRED>
4.68E-05

>  <VISCOSITY_CP_CP_TEST_PRED>
8.31764

>  <VAPOR_PRESSURE_MMHG_TEST_PRED>
0.000831764

>  <WATER_SOLUBILITY_MOL/L_TEST_PRED>
0.000363078

>  <ATMOSPHERIC_HYDROXYLATION_RATE_(AOH)_CM3/MOLECULE*SEC_OPERA_PRED>
8.41E-12

>  <BIOCONCENTRATION_FACTOR_OPERA_PRED>
36.2002

>  <BIODEGRADATION_HALF_LIFE_DAYS_DAYS_OPERA_PRED>
5.35947

>  <BOILING_POINT_DEGC_OPERA_PRED>
323.4

>  <HENRYS_LAW_ATM-M3/MOLE_OPERA_PRED>
3.30E-08

>  <OPERA_KM_DAYS_OPERA_PRED>
0.302828

>  <OCTANOL_AIR_PARTITION_COEFF_LOGKOA_OPERA_PRED>
7.45574

>  <SOIL_ADSORPTION_COEFFICIENT_KOC_L/KG_OPERA_PRED>
122.195

>  <OCTANOL_WATER_PARTITION_LOGP_OPERA_PRED>
3.96773

>  <MELTING_POINT_DEGC_OPERA_PRED>
22.6605

>  <VAPOR_PRESSURE_MMHG_OPERA_PRED>
0.000224616

>  <WATER_SOLUBILITY_MOL/L_OPERA_PRED>
7.25E-05

>  <Shape Index>
0.6875

>  <Molecular Flexibility>
0.45636

>  <Molecular Complexity>
0.51585

>  <Electronegative Atoms>
2

>  <Stereo Centers>
0

>  <Rotatable Bonds>
4

>  <Rings Closures>
2

>  <Aromatic Rings>
2

>  <Aromatic Atoms>
12

>  <Amides>
0

>  <Amines>
0

>  <Aromatic Nitrogens>
0

>  <Shape Index 2>
0.6875

>  <Molecular Flexibility 2>
0.45636

>  <Molecular Complexity 2>
0.51585

>  <Non-C/H Atoms>
2

>  <Electronegative Atoms 2>
2

>  <Stereo Centers 2>
0

>  <Rotatable Bonds 2>
4

>  <Rings Closures 2>
2

>  <Aromatic Rings 2>
2

>  <Aromatic Atoms 2>
12

>  <sp3-Atoms>
2

>  <Amides 2>
0

>  <Amines 2>
0

>  <Aromatic Nitrogens 2>
0

>  <Basic Nitrogens>
0

$$$$
Benzyl salicylate
Actelion Java MolfileCreator 2.0

  0  0  0  0  0  0              0 V3000
M  V30 BEGIN CTAB
M  V30 COUNTS 17 18 0 0 0
M  V30 BEGIN ATOM
M  V30 1 O 0.0 0.0 0.0 0
M  V30 2 C -1.3075 0.7539 0.0 0
M  V30 3 O -2.6151 0.0235 0.0 0
M  V30 4 C -1.3193 2.2617 0.0 0
M  V30 5 C -3.9226 0.7774 0.0 0
M  V30 6 C -0.0353 3.0156 0.0 0
M  V30 7 C -2.6268 3.0156 0.0 0
M  V30 8 C -5.2302 0.0471 0.0 0
M  V30 9 O 1.2486 2.2735 0.0 0
M  V30 10 C -0.0471 4.5234 0.0 0
M  V30 11 C -2.6386 4.5234 0.0 0
M  V30 12 C -6.5377 0.801 0.0 0
M  V30 13 C -5.242 -1.4371 0.0 0
M  V30 14 C -1.3546 5.2773 0.0 0
M  V30 15 C -7.8453 0.0706 0.0 0
M  V30 16 C -6.5495 -2.1674 0.0 0
M  V30 17 C -7.8571 -1.4135 0.0 0
M  V30 END ATOM
M  V30 BEGIN BOND
M  V30 1 2 1 2
M  V30 2 1 2 3
M  V30 3 1 2 4
M  V30 4 1 3 5
M  V30 5 2 4 6
M  V30 6 1 4 7
M  V30 7 1 5 8
M  V30 8 1 6 9
M  V30 9 1 6 10
M  V30 10 2 7 11
M  V30 11 2 8 12
M  V30 12 1 8 13
M  V30 13 2 10 14
M  V30 14 1 12 15
M  V30 15 2 13 16
M  V30 16 2 15 17
M  V30 17 1 11 14
M  V30 18 1 16 17
M  V30 END BOND
M  V30 END CTAB
M  END
>  <Molecule Name>
Benzyl salicylate

>  <Order (spectra)>
142

>  <NAME>
Benzyl salicylate

>  <Molecular Formula>
C14H12O3

>  <Monoisotopic Mass>
228.078645

>  <SMILES>
OC1=C(C=CC=C1)C(=O)OCC1=CC=CC=C1

>  <InChI>
InChI=1S/C14H12O3/c15-13-9-5-4-8-12(13)14(16)17-10-11-6-2-1-3-7-11/h1-9,15H,10H2

>  <InChIKey>
ZCTQGTTXIYCGGC-UHFFFAOYSA-N

>  <Kingdom>
Organic compounds

>  <Superclass>
Benzenoids

>  <Class>
Benzene and substituted derivatives

>  <Subclass>
Benzoic acids and derivatives

>  <Parent Level 1>
Benzoic acid esters

>  <Parent Level 2>
o-Hydroxybenzoic acid esters

>  <Parent Level 3>


>  <cLogP>
2.645

>  <cLogS>
-2.784

>  <Druglikeness>
-1.4716

>  <NP-class probability>
0.99

>  <SmilesFragFp 3>


>  <MS_READY_SMILES>
OC1=C(C=CC=C1)C(=O)OCC1=CC=CC=C1

>  <MS_READY_InChI>
InChI=1S/C14H12O3/c15-13-9-5-4-8-12(13)14(16)17-10-11-6-2-1-3-7-11/h1-9,15H,10H2

>  <QSAR_READY_SMILES>
OC1=C(C=CC=C1)C(=O)OCC1=CC=CC=C1

>  <QSAR_READY_InChI>
InChI=1S/C14H12O3/c15-13-9-5-4-8-12(13)14(16)17-10-11-6-2-1-3-7-11/h1-9,15H,10H2

>  <DTXSID>
DTXSID1024598

>  <DTXCID>
DTXCID304598

>  <CASRN>
118-58-1

>  <EXPOCAST_MEDIAN_EXPOSURE_PREDICTION_MG/KG-BW/DAY>
4.73E-04

>  <BIOCONCENTRATION_FACTOR_TEST_PRED>
15.1356

>  <BOILING_POINT_DEGC_TEST_PRED>
331.43

>  <48HR_DAPHNIA_LC50_MOL/L_TEST_PRED>
1.64E-05

>  <DENSITY_G/CM^3_TEST_PRED>
1.226

>  <DEVTOX_TEST_PRED>
0.762

>  <96HR_FATHEAD_MINNOW_MOL/L_TEST_PRED>
9.12E-06

>  <FLASH_POINT_DEGC_TEST_PRED>
164.56

>  <MELTING_POINT_DEGC_TEST_PRED>
105.803

>  <AMES_MUTAGENICITY_TEST_PRED>
0.031

>  <ORAL_RAT_LD50_MOL/KG_TEST_PRED>
0.00756833

>  <SURFACE_TENSION_DYN/CM_TEST_PRED>
42.893

>  <THERMAL_CONDUCTIVITY_MW/(M*K)_TEST_PRED>
147.368

>  <TETRAHYMENA_PYRIFORMIS_IGC50_MOL/L_TEST_PRED>
3.58E-05

>  <VISCOSITY_CP_CP_TEST_PRED>
24.0991

>  <VAPOR_PRESSURE_MMHG_TEST_PRED>
2.37E-05

>  <WATER_SOLUBILITY_MOL/L_TEST_PRED>
0.000404576

>  <ATMOSPHERIC_HYDROXYLATION_RATE_(AOH)_CM3/MOLECULE*SEC_OPERA_PRED>
1.44E-11

>  <BIOCONCENTRATION_FACTOR_OPERA_PRED>
25.3647

>  <BIODEGRADATION_HALF_LIFE_DAYS_DAYS_OPERA_PRED>
3.55813

>  <BOILING_POINT_DEGC_OPERA_PRED>
325.499

>  <HENRYS_LAW_ATM-M3/MOLE_OPERA_PRED>
2.76E-10

>  <OPERA_KM_DAYS_OPERA_PRED>
0.129214

>  <OCTANOL_AIR_PARTITION_COEFF_LOGKOA_OPERA_PRED>
9.26321

>  <SOIL_ADSORPTION_COEFFICIENT_KOC_L/KG_OPERA_PRED>
116.435

>  <OCTANOL_WATER_PARTITION_LOGP_OPERA_PRED>
3.10622

>  <MELTING_POINT_DEGC_OPERA_PRED>
67.1464

>  <VAPOR_PRESSURE_MMHG_OPERA_PRED>
6.42E-07

>  <WATER_SOLUBILITY_MOL/L_OPERA_PRED>
0.000331304

>  <Shape Index>
0.64706

>  <Molecular Flexibility>
0.43937

>  <Molecular Complexity>
0.59413

>  <Electronegative Atoms>
3

>  <Stereo Centers>
0

>  <Rotatable Bonds>
4

>  <Rings Closures>
2

>  <Aromatic Rings>
2

>  <Aromatic Atoms>
12

>  <Amides>
0

>  <Amines>
0

>  <Aromatic Nitrogens>
0

>  <Shape Index 2>
0.64706

>  <Molecular Flexibility 2>
0.43937

>  <Molecular Complexity 2>
0.59413

>  <Non-C/H Atoms>
3

>  <Electronegative Atoms 2>
3

>  <Stereo Centers 2>
0

>  <Rotatable Bonds 2>
4

>  <Rings Closures 2>
2

>  <Aromatic Rings 2>
2

>  <Aromatic Atoms 2>
12

>  <sp3-Atoms>
3

>  <Amides 2>
0

>  <Amines 2>
0

>  <Aromatic Nitrogens 2>
0

>  <Basic Nitrogens>
0

$$$$
4,4'-Dichlorodiphenyldichloroethylene
Actelion Java MolfileCreator 2.0

  0  0  0  0  0  0              0 V3000
M  V30 BEGIN CTAB
M  V30 COUNTS 18 19 0 0 0
M  V30 BEGIN ATOM
M  V30 1 Cl 0.0 0.0 0.0 0
M  V30 2 C -1.3125 -0.7331 0.0 0
M  V30 3 C -2.6251 0.0236 0.0 0
M  V30 4 C -1.3243 -2.223 0.0 0
M  V30 5 C -3.9376 -0.7213 0.0 0
M  V30 6 C -2.6369 -2.9562 0.0 0
M  V30 7 C -3.9494 -2.2112 0.0 0
M  V30 8 C -5.262 -2.9443 0.0 0
M  V30 9 C -5.2738 -4.4343 0.0 0
M  V30 10 C -6.5745 -2.1875 0.0 0
M  V30 11 C -6.5864 -5.1674 0.0 0
M  V30 12 C -3.9849 -5.1674 0.0 0
M  V30 13 Cl -6.5864 -0.674 0.0 0
M  V30 14 Cl -7.8871 -2.9207 0.0 0
M  V30 15 C -6.5982 -6.6573 0.0 0
M  V30 16 C -3.9967 -6.6573 0.0 0
M  V30 17 C -5.3093 -7.4023 0.0 0
M  V30 18 Cl -5.3211 -8.8922 0.0 0
M  V30 END ATOM
M  V30 BEGIN BOND
M  V30 1 1 1 2
M  V30 2 2 2 3
M  V30 3 1 2 4
M  V30 4 1 3 5
M  V30 5 2 4 6
M  V30 6 2 5 7
M  V30 7 1 7 8
M  V30 8 1 8 9
M  V30 9 2 8 10
M  V30 10 2 9 11
M  V30 11 1 9 12
M  V30 12 1 10 13
M  V30 13 1 10 14
M  V30 14 1 11 15
M  V30 15 2 12 16
M  V30 16 2 15 17
M  V30 17 1 17 18
M  V30 18 1 6 7
M  V30 19 1 16 17
M  V30 END BOND
M  V30 END CTAB
M  END
>  <Molecule Name>
4,4'-Dichlorodiphenyldichloroethylene

>  <Order (spectra)>
166

>  <NAME>
4,4'-Dichlorodiphenyldichloroethylene

>  <Molecular Formula>
C14H8Cl4

>  <Monoisotopic Mass>
315.938008

>  <SMILES>
ClC(Cl)=C(C1=CC=C(Cl)C=C1)C1=CC=C(Cl)C=C1

>  <InChI>
InChI=1S/C14H8Cl4/c15-11-5-1-9(2-6-11)13(14(17)18)10-3-7-12(16)8-4-10/h1-8H

>  <InChIKey>
UCNVFOCBFJOQAL-UHFFFAOYSA-N

>  <Kingdom>
Organic compounds

>  <Superclass>
Benzenoids

>  <Class>
Benzene and substituted derivatives

>  <Subclass>
Diphenylmethanes

>  <Parent Level 1>
Diphenylmethanes

>  <Parent Level 2>


>  <Parent Level 3>


>  <cLogP>
5.5325

>  <cLogS>
-6.138

>  <Druglikeness>
-0.81083

>  <NP-class probability>
0.14

>  <SmilesFragFp 3>


>  <MS_READY_SMILES>
ClC(Cl)=C(C1=CC=C(Cl)C=C1)C1=CC=C(Cl)C=C1

>  <MS_READY_InChI>
InChI=1S/C14H8Cl4/c15-11-5-1-9(2-6-11)13(14(17)18)10-3-7-12(16)8-4-10/h1-8H

>  <QSAR_READY_SMILES>
ClC(Cl)=C(C1=CC=C(Cl)C=C1)C1=CC=C(Cl)C=C1

>  <QSAR_READY_InChI>
InChI=1S/C14H8Cl4/c15-11-5-1-9(2-6-11)13(14(17)18)10-3-7-12(16)8-4-10/h1-8H

>  <DTXSID>
DTXSID9020374

>  <DTXCID>
DTXCID90374

>  <CASRN>
72-55-9

>  <EXPOCAST_MEDIAN_EXPOSURE_PREDICTION_MG/KG-BW/DAY>
5.47E-08

>  <BIOCONCENTRATION_FACTOR_TEST_PRED>
17298.2

>  <BOILING_POINT_DEGC_TEST_PRED>
360.317

>  <48HR_DAPHNIA_LC50_MOL/L_TEST_PRED>
1.64E-07

>  <DENSITY_G/CM^3_TEST_PRED>
1.454

>  <DEVTOX_TEST_PRED>
0.419

>  <96HR_FATHEAD_MINNOW_MOL/L_TEST_PRED>
2.73E-07

>  <FLASH_POINT_DEGC_TEST_PRED>
172.787

>  <MELTING_POINT_DEGC_TEST_PRED>
104.143

>  <AMES_MUTAGENICITY_TEST_PRED>
-0.248

>  <ORAL_RAT_LD50_MOL/KG_TEST_PRED>
0.00121899

>  <SURFACE_TENSION_DYN/CM_TEST_PRED>
-

>  <THERMAL_CONDUCTIVITY_MW/(M*K)_TEST_PRED>
-

>  <TETRAHYMENA_PYRIFORMIS_IGC50_MOL/L_TEST_PRED>
3.04E-06

>  <VISCOSITY_CP_CP_TEST_PRED>
18.578

>  <VAPOR_PRESSURE_MMHG_TEST_PRED>
3.53E-06

>  <WATER_SOLUBILITY_MOL/L_TEST_PRED>
2.62E-07

>  <ATMOSPHERIC_HYDROXYLATION_RATE_(AOH)_CM3/MOLECULE*SEC_OPERA_PRED>
7.05E-13

>  <BIOCONCENTRATION_FACTOR_OPERA_PRED>
12026.1

>  <BIODEGRADATION_HALF_LIFE_DAYS_DAYS_OPERA_PRED>
16.6788

>  <BOILING_POINT_DEGC_OPERA_PRED>
336.122

>  <HENRYS_LAW_ATM-M3/MOLE_OPERA_PRED>
0.000041562

>  <OPERA_KM_DAYS_OPERA_PRED>
51.4952

>  <OCTANOL_AIR_PARTITION_COEFF_LOGKOA_OPERA_PRED>
9.44218

>  <SOIL_ADSORPTION_COEFFICIENT_KOC_L/KG_OPERA_PRED>
65976.5

>  <OCTANOL_WATER_PARTITION_LOGP_OPERA_PRED>
6.73301

>  <MELTING_POINT_DEGC_OPERA_PRED>
89.0227

>  <VAPOR_PRESSURE_MMHG_OPERA_PRED>
5.97E-06

>  <WATER_SOLUBILITY_MOL/L_OPERA_PRED>
1.67E-07

>  <Shape Index>
0.61111

>  <Molecular Flexibility>
0.4755

>  <Molecular Complexity>
0.70492

>  <Electronegative Atoms>
4

>  <Stereo Centers>
0

>  <Rotatable Bonds>
2

>  <Rings Closures>
2

>  <Aromatic Rings>
2

>  <Aromatic Atoms>
12

>  <Amides>
0

>  <Amines>
0

>  <Aromatic Nitrogens>
0

>  <Shape Index 2>
0.61111

>  <Molecular Flexibility 2>
0.4755

>  <Molecular Complexity 2>
0.70492

>  <Non-C/H Atoms>
4

>  <Electronegative Atoms 2>
4

>  <Stereo Centers 2>
0

>  <Rotatable Bonds 2>
2

>  <Rings Closures 2>
2

>  <Aromatic Rings 2>
2

>  <Aromatic Atoms 2>
12

>  <sp3-Atoms>
0

>  <Amides 2>
0

>  <Amines 2>
0

>  <Aromatic Nitrogens 2>
0

>  <Basic Nitrogens>
0

$$$$
Methoxychlor
Actelion Java MolfileCreator 2.0

  0  0  0  0  0  0              0 V3000
M  V30 BEGIN CTAB
M  V30 COUNTS 21 22 0 0 0
M  V30 BEGIN ATOM
M  V30 1 Cl 0.0 0.0 0.0 0
M  V30 2 C 0.7333 -1.2893 0.0 0
M  V30 3 Cl 2.0227 -0.5323 0.0 0
M  V30 4 Cl 1.4667 -2.5787 0.0 0
M  V30 5 C -0.5796 -2.0227 0.0 0
M  V30 6 C -1.8926 -1.2656 0.0 0
M  V30 7 C -0.5914 -3.5131 0.0 0
M  V30 8 C -1.9044 0.2484 0.0 0
M  V30 9 C -3.2056 -1.999 0.0 0
M  V30 10 C -1.9044 -4.2465 0.0 0
M  V30 11 C 0.6979 -4.2465 0.0 0
M  V30 12 C -3.2174 1.0054 0.0 0
M  V30 13 C -4.5186 -1.242 0.0 0
M  V30 14 C -1.9162 -5.737 0.0 0
M  V30 15 C 0.686 -5.737 0.0 0
M  V30 16 C -4.5304 0.272 0.0 0
M  V30 17 C -0.6269 -6.4822 0.0 0
M  V30 18 O -5.8434 1.0291 0.0 0
M  V30 19 O -0.6387 -7.9726 0.0 0
M  V30 20 C -7.1564 0.2957 0.0 0
M  V30 21 C 0.6505 -8.706 0.0 0
M  V30 END ATOM
M  V30 BEGIN BOND
M  V30 1 1 1 2
M  V30 2 1 2 3
M  V30 3 1 2 4
M  V30 4 1 2 5
M  V30 5 1 5 6
M  V30 6 1 5 7
M  V30 7 2 6 8
M  V30 8 1 6 9
M  V30 9 2 7 10
M  V30 10 1 7 11
M  V30 11 1 8 12
M  V30 12 2 9 13
M  V30 13 1 10 14
M  V30 14 2 11 15
M  V30 15 2 12 16
M  V30 16 2 14 17
M  V30 17 1 16 18
M  V30 18 1 17 19
M  V30 19 1 18 20
M  V30 20 1 19 21
M  V30 21 1 13 16
M  V30 22 1 15 17
M  V30 END BOND
M  V30 END CTAB
M  END
>  <Molecule Name>
Methoxychlor

>  <Order (spectra)>
167

>  <NAME>
Methoxychlor

>  <Molecular Formula>
C16H15O2Cl3

>  <Monoisotopic Mass>
344.013761

>  <SMILES>
COC1=CC=C(C=C1)C(C1=CC=C(OC)C=C1)C(Cl)(Cl)Cl

>  <InChI>
InChI=1S/C16H15Cl3O2/c1-20-13-7-3-11(4-8-13)15(16(17,18)19)12-5-9-14(21-2)10-6-12/h3-10,15H,1-2H3

>  <InChIKey>
IAKOZHOLGAGEJT-UHFFFAOYSA-N

>  <Kingdom>
Organic compounds

>  <Superclass>
Benzenoids

>  <Class>
Benzene and substituted derivatives

>  <Subclass>
Diphenylmethanes

>  <Parent Level 1>
Diphenylmethanes

>  <Parent Level 2>


>  <Parent Level 3>


>  <cLogP>
5.2512

>  <cLogS>
-4.505

>  <Druglikeness>
-1.6316

>  <NP-class probability>
0.31

>  <SmilesFragFp 3>


>  <MS_READY_SMILES>
COC1=CC=C(C=C1)C(C1=CC=C(OC)C=C1)C(Cl)(Cl)Cl

>  <MS_READY_InChI>
InChI=1S/C16H15Cl3O2/c1-20-13-7-3-11(4-8-13)15(16(17,18)19)12-5-9-14(21-2)10-6-12/h3-10,15H,1-2H3

>  <QSAR_READY_SMILES>
COC1=CC=C(C=C1)C(C1=CC=C(OC)C=C1)C(Cl)(Cl)Cl

>  <QSAR_READY_InChI>
InChI=1S/C16H15Cl3O2/c1-20-13-7-3-11(4-8-13)15(16(17,18)19)12-5-9-14(21-2)10-6-12/h3-10,15H,1-2H3

>  <DTXSID>
DTXSID9020827

>  <DTXCID>
DTXCID30827

>  <CASRN>
72-43-5

>  <EXPOCAST_MEDIAN_EXPOSURE_PREDICTION_MG/KG-BW/DAY>
2.02E-07

>  <BIOCONCENTRATION_FACTOR_TEST_PRED>
628.058

>  <BOILING_POINT_DEGC_TEST_PRED>
358.501

>  <48HR_DAPHNIA_LC50_MOL/L_TEST_PRED>
7.31E-07

>  <DENSITY_G/CM^3_TEST_PRED>
1.393

>  <DEVTOX_TEST_PRED>
0.876

>  <96HR_FATHEAD_MINNOW_MOL/L_TEST_PRED>
5.94E-07

>  <FLASH_POINT_DEGC_TEST_PRED>
199.543

>  <MELTING_POINT_DEGC_TEST_PRED>
79.002

>  <AMES_MUTAGENICITY_TEST_PRED>
0.244

>  <ORAL_RAT_LD50_MOL/KG_TEST_PRED>
-

>  <SURFACE_TENSION_DYN/CM_TEST_PRED>
-

>  <THERMAL_CONDUCTIVITY_MW/(M*K)_TEST_PRED>
134.214

>  <TETRAHYMENA_PYRIFORMIS_IGC50_MOL/L_TEST_PRED>
3.62E-06

>  <VISCOSITY_CP_CP_TEST_PRED>
15.6315

>  <VAPOR_PRESSURE_MMHG_TEST_PRED>
2.42E-06

>  <WATER_SOLUBILITY_MOL/L_TEST_PRED>
7.94E-07

>  <ATMOSPHERIC_HYDROXYLATION_RATE_(AOH)_CM3/MOLECULE*SEC_OPERA_PRED>
1.64E-11

>  <BIOCONCENTRATION_FACTOR_OPERA_PRED>
317.991

>  <BIODEGRADATION_HALF_LIFE_DAYS_DAYS_OPERA_PRED>
5.09595

>  <BOILING_POINT_DEGC_OPERA_PRED>
346.007

>  <HENRYS_LAW_ATM-M3/MOLE_OPERA_PRED>
2.05E-07

>  <OPERA_KM_DAYS_OPERA_PRED>
28.1939

>  <OCTANOL_AIR_PARTITION_COEFF_LOGKOA_OPERA_PRED>
9.1736

>  <SOIL_ADSORPTION_COEFFICIENT_KOC_L/KG_OPERA_PRED>
79308.3

>  <OCTANOL_WATER_PARTITION_LOGP_OPERA_PRED>
5.08015

>  <MELTING_POINT_DEGC_OPERA_PRED>
86.9644

>  <VAPOR_PRESSURE_MMHG_OPERA_PRED>
6.16E-06

>  <WATER_SOLUBILITY_MOL/L_OPERA_PRED>
2.45E-07

>  <Shape Index>
0.61905

>  <Molecular Flexibility>
0.51367

>  <Molecular Complexity>
0.63962

>  <Electronegative Atoms>
5

>  <Stereo Centers>
0

>  <Rotatable Bonds>
5

>  <Rings Closures>
2

>  <Aromatic Rings>
2

>  <Aromatic Atoms>
12

>  <Amides>
0

>  <Amines>
0

>  <Aromatic Nitrogens>
0

>  <Shape Index 2>
0.61905

>  <Molecular Flexibility 2>
0.51367

>  <Molecular Complexity 2>
0.63962

>  <Non-C/H Atoms>
5

>  <Electronegative Atoms 2>
5

>  <Stereo Centers 2>
0

>  <Rotatable Bonds 2>
5

>  <Rings Closures 2>
2

>  <Aromatic Rings 2>
2

>  <Aromatic Atoms 2>
12

>  <sp3-Atoms>
6

>  <Amides 2>
0

>  <Amines 2>
0

>  <Aromatic Nitrogens 2>
0

>  <Basic Nitrogens>
0

$$$$
4,4'-Dichlorodiphenyldichloroethane
Actelion Java MolfileCreator 2.0

  0  0  0  0  0  0              0 V3000
M  V30 BEGIN CTAB
M  V30 COUNTS 18 19 0 0 0
M  V30 BEGIN ATOM
M  V30 1 Cl 0.0 0.0 0.0 0
M  V30 2 C -1.3125 -0.7331 0.0 0
M  V30 3 C -2.6251 0.0236 0.0 0
M  V30 4 C -1.3243 -2.223 0.0 0
M  V30 5 C -3.9376 -0.7213 0.0 0
M  V30 6 C -2.6369 -2.9562 0.0 0
M  V30 7 C -3.9494 -2.2112 0.0 0
M  V30 8 C -5.262 -2.9443 0.0 0
M  V30 9 C -5.2738 -4.4343 0.0 0
M  V30 10 C -6.5745 -2.1875 0.0 0
M  V30 11 C -6.5864 -5.1674 0.0 0
M  V30 12 C -3.9849 -5.1674 0.0 0
M  V30 13 Cl -6.5864 -0.674 0.0 0
M  V30 14 Cl -7.8871 -2.9207 0.0 0
M  V30 15 C -6.5982 -6.6573 0.0 0
M  V30 16 C -3.9967 -6.6573 0.0 0
M  V30 17 C -5.3093 -7.4023 0.0 0
M  V30 18 Cl -5.3211 -8.8922 0.0 0
M  V30 END ATOM
M  V30 BEGIN BOND
M  V30 1 1 1 2
M  V30 2 2 2 3
M  V30 3 1 2 4
M  V30 4 1 3 5
M  V30 5 2 4 6
M  V30 6 2 5 7
M  V30 7 1 7 8
M  V30 8 1 8 9
M  V30 9 1 8 10
M  V30 10 2 9 11
M  V30 11 1 9 12
M  V30 12 1 10 13
M  V30 13 1 10 14
M  V30 14 1 11 15
M  V30 15 2 12 16
M  V30 16 2 15 17
M  V30 17 1 17 18
M  V30 18 1 6 7
M  V30 19 1 16 17
M  V30 END BOND
M  V30 END CTAB
M  END
>  <Molecule Name>
4,4'-Dichlorodiphenyldichloroethane

>  <Order (spectra)>
168

>  <NAME>
4,4'-Dichlorodiphenyldichloroethane

>  <Molecular Formula>
C14H10Cl4

>  <Monoisotopic Mass>
317.953658

>  <SMILES>
ClC(Cl)C(C1=CC=C(Cl)C=C1)C1=CC=C(Cl)C=C1

>  <InChI>
InChI=1S/C14H10Cl4/c15-11-5-1-9(2-6-11)13(14(17)18)10-3-7-12(16)8-4-10/h1-8,13-14H

>  <InChIKey>
AHJKRLASYNVKDZ-UHFFFAOYSA-N

>  <Kingdom>
Organic compounds

>  <Superclass>
Benzenoids

>  <Class>
Benzene and substituted derivatives

>  <Subclass>
Diphenylmethanes

>  <Parent Level 1>
Diphenylmethanes

>  <Parent Level 2>


>  <Parent Level 3>


>  <cLogP>
5.7902

>  <cLogS>
-5.438

>  <Druglikeness>
-1.3066

>  <NP-class probability>
0.18

>  <SmilesFragFp 3>


>  <MS_READY_SMILES>
ClC(Cl)C(C1=CC=C(Cl)C=C1)C1=CC=C(Cl)C=C1

>  <MS_READY_InChI>
InChI=1S/C14H10Cl4/c15-11-5-1-9(2-6-11)13(14(17)18)10-3-7-12(16)8-4-10/h1-8,13-14H

>  <QSAR_READY_SMILES>
ClC(Cl)C(C1=CC=C(Cl)C=C1)C1=CC=C(Cl)C=C1

>  <QSAR_READY_InChI>
InChI=1S/C14H10Cl4/c15-11-5-1-9(2-6-11)13(14(17)18)10-3-7-12(16)8-4-10/h1-8,13-14H

>  <DTXSID>
DTXSID4020373

>  <DTXCID>
DTXCID60373

>  <CASRN>
72-54-8

>  <EXPOCAST_MEDIAN_EXPOSURE_PREDICTION_MG/KG-BW/DAY>
2.99E-10

>  <BIOCONCENTRATION_FACTOR_TEST_PRED>
6606.93

>  <BOILING_POINT_DEGC_TEST_PRED>
357.649

>  <48HR_DAPHNIA_LC50_MOL/L_TEST_PRED>
2.08E-07

>  <DENSITY_G/CM^3_TEST_PRED>
1.387

>  <DEVTOX_TEST_PRED>
0.409

>  <96HR_FATHEAD_MINNOW_MOL/L_TEST_PRED>
2.97E-07

>  <FLASH_POINT_DEGC_TEST_PRED>
179.613

>  <MELTING_POINT_DEGC_TEST_PRED>
82.092

>  <AMES_MUTAGENICITY_TEST_PRED>
0.391

>  <ORAL_RAT_LD50_MOL/KG_TEST_PRED>
0.00121339

>  <SURFACE_TENSION_DYN/CM_TEST_PRED>
44.493

>  <THERMAL_CONDUCTIVITY_MW/(M*K)_TEST_PRED>
125.064

>  <TETRAHYMENA_PYRIFORMIS_IGC50_MOL/L_TEST_PRED>
1.40E-06

>  <VISCOSITY_CP_CP_TEST_PRED>
20.0447

>  <VAPOR_PRESSURE_MMHG_TEST_PRED>
8.26E-06

>  <WATER_SOLUBILITY_MOL/L_TEST_PRED>
3.24E-07

>  <ATMOSPHERIC_HYDROXYLATION_RATE_(AOH)_CM3/MOLECULE*SEC_OPERA_PRED>
7.05E-13

>  <BIOCONCENTRATION_FACTOR_OPERA_PRED>
7808.58

>  <BIODEGRADATION_HALF_LIFE_DAYS_DAYS_OPERA_PRED>
11.6922

>  <BOILING_POINT_DEGC_OPERA_PRED>
350.046

>  <HENRYS_LAW_ATM-M3/MOLE_OPERA_PRED>
6.64E-06

>  <OPERA_KM_DAYS_OPERA_PRED>
274.473

>  <OCTANOL_AIR_PARTITION_COEFF_LOGKOA_OPERA_PRED>
10.0191

>  <SOIL_ADSORPTION_COEFFICIENT_KOC_L/KG_OPERA_PRED>
16352.6

>  <OCTANOL_WATER_PARTITION_LOGP_OPERA_PRED>
6.12894

>  <MELTING_POINT_DEGC_OPERA_PRED>
105.291

>  <VAPOR_PRESSURE_MMHG_OPERA_PRED>
1.35E-06

>  <WATER_SOLUBILITY_MOL/L_OPERA_PRED>
2.81E-07

>  <Shape Index>
0.61111

>  <Molecular Flexibility>
0.53136

>  <Molecular Complexity>
0.67279

>  <Electronegative Atoms>
4

>  <Stereo Centers>
0

>  <Rotatable Bonds>
3

>  <Rings Closures>
2

>  <Aromatic Rings>
2

>  <Aromatic Atoms>
12

>  <Amides>
0

>  <Amines>
0

>  <Aromatic Nitrogens>
0

>  <Shape Index 2>
0.61111

>  <Molecular Flexibility 2>
0.53136

>  <Molecular Complexity 2>
0.67279

>  <Non-C/H Atoms>
4

>  <Electronegative Atoms 2>
4

>  <Stereo Centers 2>
0

>  <Rotatable Bonds 2>
3

>  <Rings Closures 2>
2

>  <Aromatic Rings 2>
2

>  <Aromatic Atoms 2>
12

>  <sp3-Atoms>
2

>  <Amides 2>
0

>  <Amines 2>
0

>  <Aromatic Nitrogens 2>
0

>  <Basic Nitrogens>
0

$$$$
4,4'-Dichlorodiphenyltrichloroethane
Actelion Java MolfileCreator 2.0

  0  0  0  0  0  0              0 V3000
M  V30 BEGIN CTAB
M  V30 COUNTS 19 20 0 0 0
M  V30 BEGIN ATOM
M  V30 1 Cl 0.0 0.0 0.0 0
M  V30 2 C -1.305 0.7524 0.0 0
M  V30 3 C -1.3167 2.2573 0.0 0
M  V30 4 C -2.61 0.0235 0.0 0
M  V30 5 C -2.6217 3.0097 0.0 0
M  V30 6 C -3.915 0.7759 0.0 0
M  V30 7 C -3.9268 2.2808 0.0 0
M  V30 8 C -5.2318 3.0332 0.0 0
M  V30 9 C -5.2435 4.5381 0.0 0
M  V30 10 C -6.5368 2.3043 0.0 0
M  V30 11 C -3.962 5.2906 0.0 0
M  V30 12 C -6.5485 5.2906 0.0 0
M  V30 13 Cl -5.8079 1.0228 0.0 0
M  V30 14 Cl -7.8418 1.5754 0.0 0
M  V30 15 Cl -7.2892 3.6093 0.0 0
M  V30 16 C -3.9738 6.7954 0.0 0
M  V30 17 C -6.5603 6.7954 0.0 0
M  V30 18 C -5.2788 7.5479 0.0 0
M  V30 19 Cl -5.2906 9.0528 0.0 0
M  V30 END ATOM
M  V30 BEGIN BOND
M  V30 1 1 1 2
M  V30 2 2 2 3
M  V30 3 1 2 4
M  V30 4 1 3 5
M  V30 5 2 4 6
M  V30 6 2 5 7
M  V30 7 1 7 8
M  V30 8 1 8 9
M  V30 9 1 8 10
M  V30 10 2 9 11
M  V30 11 1 9 12
M  V30 12 1 10 13
M  V30 13 1 10 14
M  V30 14 1 10 15
M  V30 15 1 11 16
M  V30 16 2 12 17
M  V30 17 2 16 18
M  V30 18 1 18 19
M  V30 19 1 6 7
M  V30 20 1 17 18
M  V30 END BOND
M  V30 END CTAB
M  END
>  <Molecule Name>
4,4'-Dichlorodiphenyltrichloroethane

>  <Order (spectra)>
169

>  <NAME>
4,4'-Dichlorodiphenyltrichloroethane

>  <Molecular Formula>
C14H9Cl5

>  <Monoisotopic Mass>
351.914685

>  <SMILES>
ClC1=CC=C(C=C1)C(C1=CC=C(Cl)C=C1)C(Cl)(Cl)Cl

>  <InChI>
InChI=1S/C14H9Cl5/c15-11-5-1-9(2-6-11)13(14(17,18)19)10-3-7-12(16)8-4-10/h1-8,13H

>  <InChIKey>
YVGGHNCTFXOJCH-UHFFFAOYSA-N

>  <Kingdom>
Organic compounds

>  <Superclass>
Benzenoids

>  <Class>
Benzene and substituted derivatives

>  <Subclass>
Diphenylmethanes

>  <Parent Level 1>
Diphenylmethanes

>  <Parent Level 2>


>  <Parent Level 3>


>  <cLogP>
6.6032

>  <cLogS>
-5.941

>  <Druglikeness>
-1.9081

>  <NP-class probability>
0.16

>  <SmilesFragFp 3>


>  <MS_READY_SMILES>
ClC1=CC=C(C=C1)C(C1=CC=C(Cl)C=C1)C(Cl)(Cl)Cl

>  <MS_READY_InChI>
InChI=1S/C14H9Cl5/c15-11-5-1-9(2-6-11)13(14(17,18)19)10-3-7-12(16)8-4-10/h1-8,13H

>  <QSAR_READY_SMILES>
ClC1=CC=C(C=C1)C(C1=CC=C(Cl)C=C1)C(Cl)(Cl)Cl

>  <QSAR_READY_InChI>
InChI=1S/C14H9Cl5/c15-11-5-1-9(2-6-11)13(14(17,18)19)10-3-7-12(16)8-4-10/h1-8,13H

>  <DTXSID>
DTXSID4020375

>  <DTXCID>
DTXCID20375

>  <CASRN>
50-29-3

>  <EXPOCAST_MEDIAN_EXPOSURE_PREDICTION_MG/KG-BW/DAY>
6.80E-11

>  <BIOCONCENTRATION_FACTOR_TEST_PRED>
13335.2

>  <BOILING_POINT_DEGC_TEST_PRED>
365.119

>  <48HR_DAPHNIA_LC50_MOL/L_TEST_PRED>
4.73E-08

>  <DENSITY_G/CM^3_TEST_PRED>
1.511

>  <DEVTOX_TEST_PRED>
0.422

>  <96HR_FATHEAD_MINNOW_MOL/L_TEST_PRED>
2.14E-07

>  <FLASH_POINT_DEGC_TEST_PRED>
185.237

>  <MELTING_POINT_DEGC_TEST_PRED>
93.937

>  <AMES_MUTAGENICITY_TEST_PRED>
0.187

>  <ORAL_RAT_LD50_MOL/KG_TEST_PRED>
-

>  <SURFACE_TENSION_DYN/CM_TEST_PRED>
42.978

>  <THERMAL_CONDUCTIVITY_MW/(M*K)_TEST_PRED>
125.085

>  <TETRAHYMENA_PYRIFORMIS_IGC50_MOL/L_TEST_PRED>
1.14E-06

>  <VISCOSITY_CP_CP_TEST_PRED>
11.324

>  <VAPOR_PRESSURE_MMHG_TEST_PRED>
2.36E-06

>  <WATER_SOLUBILITY_MOL/L_TEST_PRED>
1.67E-07

>  <ATMOSPHERIC_HYDROXYLATION_RATE_(AOH)_CM3/MOLECULE*SEC_OPERA_PRED>
7.04E-13

>  <BIOCONCENTRATION_FACTOR_OPERA_PRED>
19465.9

>  <BIODEGRADATION_HALF_LIFE_DAYS_DAYS_OPERA_PRED>
19.653

>  <BOILING_POINT_DEGC_OPERA_PRED>
371.487

>  <HENRYS_LAW_ATM-M3/MOLE_OPERA_PRED>
8.35E-06

>  <OPERA_KM_DAYS_OPERA_PRED>
85.1064

>  <OCTANOL_AIR_PARTITION_COEFF_LOGKOA_OPERA_PRED>
9.56752

>  <SOIL_ADSORPTION_COEFFICIENT_KOC_L/KG_OPERA_PRED>
203163

>  <OCTANOL_WATER_PARTITION_LOGP_OPERA_PRED>
6.9101

>  <MELTING_POINT_DEGC_OPERA_PRED>
108.43

>  <VAPOR_PRESSURE_MMHG_OPERA_PRED>
1.63E-07

>  <WATER_SOLUBILITY_MOL/L_OPERA_PRED>
1.94E-08

>  <Shape Index>
0.57895

>  <Molecular Flexibility>
0.48373

>  <Molecular Complexity>
0.68273

>  <Electronegative Atoms>
5

>  <Stereo Centers>
0

>  <Rotatable Bonds>
3

>  <Rings Closures>
2

>  <Aromatic Rings>
2

>  <Aromatic Atoms>
12

>  <Amides>
0

>  <Amines>
0

>  <Aromatic Nitrogens>
0

>  <Shape Index 2>
0.57895

>  <Molecular Flexibility 2>
0.48373

>  <Molecular Complexity 2>
0.68273

>  <Non-C/H Atoms>
5

>  <Electronegative Atoms 2>
5

>  <Stereo Centers 2>
0

>  <Rotatable Bonds 2>
3

>  <Rings Closures 2>
2

>  <Aromatic Rings 2>
2

>  <Aromatic Atoms 2>
12

>  <sp3-Atoms>
2

>  <Amides 2>
0

>  <Amines 2>
0

>  <Aromatic Nitrogens 2>
0

>  <Basic Nitrogens>
0

$$$$
2,4-D butyl ester
Actelion Java MolfileCreator 2.0

  0  0  0  0  0  0              0 V3000
M  V30 BEGIN CTAB
M  V30 COUNTS 17 17 0 0 0
M  V30 BEGIN ATOM
M  V30 1 Cl 0.0 0.0 0.0 0
M  V30 2 C -0.0117 -1.4861 0.0 0
M  V30 3 C -1.3209 -2.2291 0.0 0
M  V30 4 C 1.2738 -2.2173 0.0 0
M  V30 5 O -2.6301 -1.4743 0.0 0
M  V30 6 C -1.3327 -3.7152 0.0 0
M  V30 7 C 1.262 -3.7034 0.0 0
M  V30 8 C -3.9393 -2.2173 0.0 0
M  V30 9 C -0.0471 -4.4583 0.0 0
M  V30 10 Cl 2.5476 -4.4465 0.0 0
M  V30 11 C -5.2485 -1.4625 0.0 0
M  V30 12 O -5.2603 0.0471 0.0 0
M  V30 13 O -6.5577 -2.2055 0.0 0
M  V30 14 C -7.8669 -1.4507 0.0 0
M  V30 15 C -9.1761 -2.1937 0.0 0
M  V30 16 C -10.4853 -1.4389 0.0 0
M  V30 17 C -11.7945 -2.1819 0.0 0
M  V30 END ATOM
M  V30 BEGIN BOND
M  V30 1 1 1 2
M  V30 2 2 2 3
M  V30 3 1 2 4
M  V30 4 1 3 5
M  V30 5 1 3 6
M  V30 6 2 4 7
M  V30 7 1 5 8
M  V30 8 2 6 9
M  V30 9 1 7 10
M  V30 10 1 8 11
M  V30 11 2 11 12
M  V30 12 1 11 13
M  V30 13 1 13 14
M  V30 14 1 14 15
M  V30 15 1 15 16
M  V30 16 1 16 17
M  V30 17 1 7 9
M  V30 END BOND
M  V30 END CTAB
M  END
>  <Molecule Name>
2,4-D butyl ester

>  <Order (spectra)>
199

>  <NAME>
2,4-D butyl ester

>  <Molecular Formula>
C12H14O3Cl2

>  <Monoisotopic Mass>
276.031999

>  <SMILES>
CCCCOC(=O)COC1=C(Cl)C=C(Cl)C=C1

>  <InChI>
InChI=1S/C12H14Cl2O3/c1-2-3-6-16-12(15)8-17-11-5-4-9(13)7-10(11)14/h4-5,7H,2-3,6,8H2,1H3

>  <InChIKey>
UQMRAFJOBWOFNS-UHFFFAOYSA-N

>  <Kingdom>
Organic compounds

>  <Superclass>
Benzenoids

>  <Class>
Benzene and substituted derivatives

>  <Subclass>
Phenoxyacetic acid derivatives

>  <Parent Level 1>
Phenoxyacetic acid derivatives

>  <Parent Level 2>


>  <Parent Level 3>


>  <cLogP>
3.6746

>  <cLogS>
-3.849

>  <Druglikeness>
-5.9893

>  <NP-class probability>
0.08

>  <SmilesFragFp 3>


>  <MS_READY_SMILES>
CCCCOC(=O)COC1=C(Cl)C=C(Cl)C=C1

>  <MS_READY_InChI>
InChI=1S/C12H14Cl2O3/c1-2-3-6-16-12(15)8-17-11-5-4-9(13)7-10(11)14/h4-5,7H,2-3,6,8H2,1H3

>  <QSAR_READY_SMILES>
CCCCOC(=O)COC1=C(Cl)C=C(Cl)C=C1

>  <QSAR_READY_InChI>
InChI=1S/C12H14Cl2O3/c1-2-3-6-16-12(15)8-17-11-5-4-9(13)7-10(11)14/h4-5,7H,2-3,6,8H2,1H3

>  <DTXSID>
DTXSID5020443

>  <DTXCID>
DTXCID10443

>  <CASRN>
94-80-4

>  <EXPOCAST_MEDIAN_EXPOSURE_PREDICTION_MG/KG-BW/DAY>
5.84E-06

>  <BIOCONCENTRATION_FACTOR_TEST_PRED>
77.0903

>  <BOILING_POINT_DEGC_TEST_PRED>
314.747

>  <48HR_DAPHNIA_LC50_MOL/L_TEST_PRED>
1.40E-05

>  <DENSITY_G/CM^3_TEST_PRED>
1.257

>  <DEVTOX_TEST_PRED>
0.448

>  <96HR_FATHEAD_MINNOW_MOL/L_TEST_PRED>
5.57E-06

>  <FLASH_POINT_DEGC_TEST_PRED>
140.991

>  <MELTING_POINT_DEGC_TEST_PRED>
33.645

>  <AMES_MUTAGENICITY_TEST_PRED>
0.035

>  <ORAL_RAT_LD50_MOL/KG_TEST_PRED>
0.00190108

>  <SURFACE_TENSION_DYN/CM_TEST_PRED>
41.146

>  <THERMAL_CONDUCTIVITY_MW/(M*K)_TEST_PRED>
140.657

>  <TETRAHYMENA_PYRIFORMIS_IGC50_MOL/L_TEST_PRED>
7.87E-06

>  <VISCOSITY_CP_CP_TEST_PRED>
11.4025

>  <VAPOR_PRESSURE_MMHG_TEST_PRED>
4.86E-05

>  <WATER_SOLUBILITY_MOL/L_TEST_PRED>
4.71E-05

>  <ATMOSPHERIC_HYDROXYLATION_RATE_(AOH)_CM3/MOLECULE*SEC_OPERA_PRED>
1.38E-11

>  <BIOCONCENTRATION_FACTOR_OPERA_PRED>
51.7411

>  <BIODEGRADATION_HALF_LIFE_DAYS_DAYS_OPERA_PRED>
4.49795

>  <BOILING_POINT_DEGC_OPERA_PRED>
307.149

>  <HENRYS_LAW_ATM-M3/MOLE_OPERA_PRED>
1.86E-08

>  <OPERA_KM_DAYS_OPERA_PRED>
0.864282

>  <OCTANOL_AIR_PARTITION_COEFF_LOGKOA_OPERA_PRED>
8.42122

>  <SOIL_ADSORPTION_COEFFICIENT_KOC_L/KG_OPERA_PRED>
477.437

>  <OCTANOL_WATER_PARTITION_LOGP_OPERA_PRED>
4.00809

>  <MELTING_POINT_DEGC_OPERA_PRED>
26.5715

>  <VAPOR_PRESSURE_MMHG_OPERA_PRED>
6.12E-05

>  <WATER_SOLUBILITY_MOL/L_OPERA_PRED>
0.000164851

>  <Shape Index>
0.76471

>  <Molecular Flexibility>
0.376

>  <Molecular Complexity>
0.61678

>  <Electronegative Atoms>
5

>  <Stereo Centers>
0

>  <Rotatable Bonds>
7

>  <Rings Closures>
1

>  <Aromatic Rings>
1

>  <Aromatic Atoms>
6

>  <Amides>
0

>  <Amines>
0

>  <Aromatic Nitrogens>
0

>  <Shape Index 2>
0.76471

>  <Molecular Flexibility 2>
0.376

>  <Molecular Complexity 2>
0.61678

>  <Non-C/H Atoms>
5

>  <Electronegative Atoms 2>
5

>  <Stereo Centers 2>
0

>  <Rotatable Bonds 2>
7

>  <Rings Closures 2>
1

>  <Aromatic Rings 2>
1

>  <Aromatic Atoms 2>
6

>  <sp3-Atoms>
7

>  <Amides 2>
0

>  <Amines 2>
0

>  <Aromatic Nitrogens 2>
0

>  <Basic Nitrogens>
0

$$$$
Dimethachlor
Actelion Java MolfileCreator 2.0

  0  0  0  0  0  0              0 V3000
M  V30 BEGIN CTAB
M  V30 COUNTS 17 17 0 0 0
M  V30 BEGIN ATOM
M  V30 1 Cl 0.0 0.0 0.0 0
M  V30 2 C -1.3085 -0.7427 0.0 0
M  V30 3 C -2.6171 0.0117 0.0 0
M  V30 4 O -2.6289 1.5207 0.0 0
M  V30 5 N -3.9257 -0.7309 0.0 0
M  V30 6 C -3.9375 -2.2163 0.0 0
M  V30 7 C -5.2343 0.0235 0.0 0
M  V30 8 C -5.2461 -2.959 0.0 0
M  V30 9 C -2.6525 -2.959 0.0 0
M  V30 10 C -6.5429 -0.7191 0.0 0
M  V30 11 C -5.2579 -4.4444 0.0 0
M  V30 12 C -6.5547 -2.1927 0.0 0
M  V30 13 C -2.6643 -4.4444 0.0 0
M  V30 14 C -1.3675 -2.2045 0.0 0
M  V30 15 O -7.8515 0.0353 0.0 0
M  V30 16 C -3.9729 -5.1871 0.0 0
M  V30 17 C -9.1601 -0.7073 0.0 0
M  V30 END ATOM
M  V30 BEGIN BOND
M  V30 1 1 1 2
M  V30 2 1 2 3
M  V30 3 2 3 4
M  V30 4 1 3 5
M  V30 5 1 5 6
M  V30 6 1 5 7
M  V30 7 2 6 8
M  V30 8 1 6 9
M  V30 9 1 7 10
M  V30 10 1 8 11
M  V30 11 1 8 12
M  V30 12 2 9 13
M  V30 13 1 9 14
M  V30 14 1 10 15
M  V30 15 2 11 16
M  V30 16 1 15 17
M  V30 17 1 13 16
M  V30 END BOND
M  V30 END CTAB
M  END
>  <Molecule Name>
Dimethachlor

>  <Order (spectra)>
203

>  <NAME>
Dimethachlor

>  <Molecular Formula>
C13H18NO2Cl

>  <Monoisotopic Mass>
255.102606

>  <SMILES>
COCCN(C(=O)CCl)C1=C(C)C=CC=C1C

>  <InChI>
InChI=1S/C13H18ClNO2/c1-10-5-4-6-11(2)13(10)15(7-8-17-3)12(16)9-14/h4-6H,7-9H2,1-3H3

>  <InChIKey>
SCCDDNKJYDZXMM-UHFFFAOYSA-N

>  <Kingdom>
Organic compounds

>  <Superclass>
Benzenoids

>  <Class>
Benzene and substituted derivatives

>  <Subclass>
Anilides

>  <Parent Level 1>
Anilides

>  <Parent Level 2>


>  <Parent Level 3>


>  <cLogP>
2.4373

>  <cLogS>
-2.944

>  <Druglikeness>
2.6131

>  <NP-class probability>
0.53

>  <SmilesFragFp 3>


>  <MS_READY_SMILES>
COCCN(C(=O)CCl)C1=C(C)C=CC=C1C

>  <MS_READY_InChI>
InChI=1S/C13H18ClNO2/c1-10-5-4-6-11(2)13(10)15(7-8-17-3)12(16)9-14/h4-6H,7-9H2,1-3H3

>  <QSAR_READY_SMILES>
COCCN(C(=O)CCl)C1=C(C)C=CC=C1C

>  <QSAR_READY_InChI>
InChI=1S/C13H18ClNO2/c1-10-5-4-6-11(2)13(10)15(7-8-17-3)12(16)9-14/h4-6H,7-9H2,1-3H3

>  <DTXSID>
DTXSID3058111

>  <DTXCID>
DTXCID2031879

>  <CASRN>
50563-36-5

>  <EXPOCAST_MEDIAN_EXPOSURE_PREDICTION_MG/KG-BW/DAY>
1.52E-07

>  <BIOCONCENTRATION_FACTOR_TEST_PRED>
15.6315

>  <BOILING_POINT_DEGC_TEST_PRED>
325.11

>  <48HR_DAPHNIA_LC50_MOL/L_TEST_PRED>
4.10E-05

>  <DENSITY_G/CM^3_TEST_PRED>
1.116

>  <DEVTOX_TEST_PRED>
0.671

>  <96HR_FATHEAD_MINNOW_MOL/L_TEST_PRED>
4.44E-05

>  <FLASH_POINT_DEGC_TEST_PRED>
161.204

>  <MELTING_POINT_DEGC_TEST_PRED>
28.853

>  <AMES_MUTAGENICITY_TEST_PRED>
0.335

>  <ORAL_RAT_LD50_MOL/KG_TEST_PRED>
0.00537032

>  <SURFACE_TENSION_DYN/CM_TEST_PRED>
-

>  <THERMAL_CONDUCTIVITY_MW/(M*K)_TEST_PRED>
145.122

>  <TETRAHYMENA_PYRIFORMIS_IGC50_MOL/L_TEST_PRED>
8.00E-05

>  <VISCOSITY_CP_CP_TEST_PRED>
23.1739

>  <VAPOR_PRESSURE_MMHG_TEST_PRED>
1.68E-05

>  <WATER_SOLUBILITY_MOL/L_TEST_PRED>
0.00128825

>  <ATMOSPHERIC_HYDROXYLATION_RATE_(AOH)_CM3/MOLECULE*SEC_OPERA_PRED>
1.38E-11

>  <BIOCONCENTRATION_FACTOR_OPERA_PRED>
59.8649

>  <BIODEGRADATION_HALF_LIFE_DAYS_DAYS_OPERA_PRED>
4.31357

>  <BOILING_POINT_DEGC_OPERA_PRED>
319.954

>  <HENRYS_LAW_ATM-M3/MOLE_OPERA_PRED>
8.39E-09

>  <OPERA_KM_DAYS_OPERA_PRED>
0.187928

>  <OCTANOL_AIR_PARTITION_COEFF_LOGKOA_OPERA_PRED>
8.77778

>  <SOIL_ADSORPTION_COEFFICIENT_KOC_L/KG_OPERA_PRED>
187.692

>  <OCTANOL_WATER_PARTITION_LOGP_OPERA_PRED>
2.17099

>  <MELTING_POINT_DEGC_OPERA_PRED>
45.6699

>  <VAPOR_PRESSURE_MMHG_OPERA_PRED>
1.13E-05

>  <WATER_SOLUBILITY_MOL/L_OPERA_PRED>
0.00862083

>  <Shape Index>
0.52941

>  <Molecular Flexibility>
0.62169

>  <Molecular Complexity>
0.68031

>  <Electronegative Atoms>
4

>  <Stereo Centers>
0

>  <Rotatable Bonds>
5

>  <Rings Closures>
1

>  <Aromatic Rings>
1

>  <Aromatic Atoms>
6

>  <Amides>
1

>  <Amines>
0

>  <Aromatic Nitrogens>
0

>  <Shape Index 2>
0.52941

>  <Molecular Flexibility 2>
0.62169

>  <Molecular Complexity 2>
0.68031

>  <Non-C/H Atoms>
4

>  <Electronegative Atoms 2>
4

>  <Stereo Centers 2>
0

>  <Rotatable Bonds 2>
5

>  <Rings Closures 2>
1

>  <Aromatic Rings 2>
1

>  <Aromatic Atoms 2>
6

>  <sp3-Atoms>
7

>  <Amides 2>
1

>  <Amines 2>
0

>  <Aromatic Nitrogens 2>
0

>  <Basic Nitrogens>
0

$$$$
Alachlor
Actelion Java MolfileCreator 2.0

  0  0  0  0  0  0              0 V3000
M  V30 BEGIN CTAB
M  V30 COUNTS 18 18 0 0 0
M  V30 BEGIN ATOM
M  V30 1 Cl 0.0 0.0 0.0 0
M  V30 2 C -1.3073 0.7537 0.0 0
M  V30 3 C -2.6146 0.0235 0.0 0
M  V30 4 O -2.6264 -1.4604 0.0 0
M  V30 5 N -3.922 0.7773 0.0 0
M  V30 6 C -3.9337 2.2848 0.0 0
M  V30 7 C -5.2293 0.0471 0.0 0
M  V30 8 C -2.65 3.0386 0.0 0
M  V30 9 C -5.2411 3.0386 0.0 0
M  V30 10 O -6.5366 0.8008 0.0 0
M  V30 11 C -2.6617 4.5462 0.0 0
M  V30 12 C -1.3662 2.2966 0.0 0
M  V30 13 C -5.2528 4.5462 0.0 0
M  V30 14 C -6.5484 2.3084 0.0 0
M  V30 15 C -7.844 0.0706 0.0 0
M  V30 16 C -3.9691 5.3 0.0 0
M  V30 17 C -0.0824 3.0504 0.0 0
M  V30 18 C -7.8557 3.0622 0.0 0
M  V30 END ATOM
M  V30 BEGIN BOND
M  V30 1 1 1 2
M  V30 2 1 2 3
M  V30 3 2 3 4
M  V30 4 1 3 5
M  V30 5 1 5 6
M  V30 6 1 5 7
M  V30 7 2 6 8
M  V30 8 1 6 9
M  V30 9 1 7 10
M  V30 10 1 8 11
M  V30 11 1 8 12
M  V30 12 2 9 13
M  V30 13 1 9 14
M  V30 14 1 10 15
M  V30 15 2 11 16
M  V30 16 1 12 17
M  V30 17 1 14 18
M  V30 18 1 13 16
M  V30 END BOND
M  V30 END CTAB
M  END
>  <Molecule Name>
Alachlor

>  <Order (spectra)>
204

>  <NAME>
Alachlor

>  <Molecular Formula>
C14H20NO2Cl

>  <Monoisotopic Mass>
269.118256

>  <SMILES>
CCC1=CC=CC(CC)=C1N(COC)C(=O)CCl

>  <InChI>
InChI=1S/C14H20ClNO2/c1-4-11-7-6-8-12(5-2)14(11)16(10-18-3)13(17)9-15/h6-8H,4-5,9-10H2,1-3H3

>  <InChIKey>
XCSGPAVHZFQHGE-UHFFFAOYSA-N

>  <Kingdom>
Organic compounds

>  <Superclass>
Benzenoids

>  <Class>
Benzene and substituted derivatives

>  <Subclass>
Anilides

>  <Parent Level 1>
Anilides

>  <Parent Level 2>


>  <Parent Level 3>


>  <cLogP>
3.2879

>  <cLogS>
-3.791

>  <Druglikeness>
1.0209

>  <NP-class probability>
0.77

>  <SmilesFragFp 3>


>  <MS_READY_SMILES>
CCC1=CC=CC(CC)=C1N(COC)C(=O)CCl

>  <MS_READY_InChI>
InChI=1S/C14H20ClNO2/c1-4-11-7-6-8-12(5-2)14(11)16(10-18-3)13(17)9-15/h6-8H,4-5,9-10H2,1-3H3

>  <QSAR_READY_SMILES>
CCC1=CC=CC(CC)=C1N(COC)C(=O)CCl

>  <QSAR_READY_InChI>
InChI=1S/C14H20ClNO2/c1-4-11-7-6-8-12(5-2)14(11)16(10-18-3)13(17)9-15/h6-8H,4-5,9-10H2,1-3H3

>  <DTXSID>
DTXSID1022265

>  <DTXCID>
DTXCID402265

>  <CASRN>
15972-60-8

>  <EXPOCAST_MEDIAN_EXPOSURE_PREDICTION_MG/KG-BW/DAY>
2.70E-07

>  <BIOCONCENTRATION_FACTOR_TEST_PRED>
16.8655

>  <BOILING_POINT_DEGC_TEST_PRED>
337.241

>  <48HR_DAPHNIA_LC50_MOL/L_TEST_PRED>
1.58E-05

>  <DENSITY_G/CM^3_TEST_PRED>
1.116

>  <DEVTOX_TEST_PRED>
0.757

>  <96HR_FATHEAD_MINNOW_MOL/L_TEST_PRED>
1.92E-05

>  <FLASH_POINT_DEGC_TEST_PRED>
173.085

>  <MELTING_POINT_DEGC_TEST_PRED>
12.575

>  <AMES_MUTAGENICITY_TEST_PRED>
0.369

>  <ORAL_RAT_LD50_MOL/KG_TEST_PRED>
0.00444631

>  <SURFACE_TENSION_DYN/CM_TEST_PRED>
-

>  <THERMAL_CONDUCTIVITY_MW/(M*K)_TEST_PRED>
145.244

>  <TETRAHYMENA_PYRIFORMIS_IGC50_MOL/L_TEST_PRED>
5.42E-05

>  <VISCOSITY_CP_CP_TEST_PRED>
26.5461

>  <VAPOR_PRESSURE_MMHG_TEST_PRED>
7.73E-06

>  <WATER_SOLUBILITY_MOL/L_TEST_PRED>
0.000781628

>  <ATMOSPHERIC_HYDROXYLATION_RATE_(AOH)_CM3/MOLECULE*SEC_OPERA_PRED>
1.38E-11

>  <BIOCONCENTRATION_FACTOR_OPERA_PRED>
13.2282

>  <BIODEGRADATION_HALF_LIFE_DAYS_DAYS_OPERA_PRED>
4.32015

>  <BOILING_POINT_DEGC_OPERA_PRED>
298.495

>  <HENRYS_LAW_ATM-M3/MOLE_OPERA_PRED>
8.34E-09

>  <OPERA_KM_DAYS_OPERA_PRED>
0.0795857

>  <OCTANOL_AIR_PARTITION_COEFF_LOGKOA_OPERA_PRED>
9.72039

>  <SOIL_ADSORPTION_COEFFICIENT_KOC_L/KG_OPERA_PRED>
190.919

>  <OCTANOL_WATER_PARTITION_LOGP_OPERA_PRED>
3.51767

>  <MELTING_POINT_DEGC_OPERA_PRED>
39.5205

>  <VAPOR_PRESSURE_MMHG_OPERA_PRED>
1.38E-05

>  <WATER_SOLUBILITY_MOL/L_OPERA_PRED>
0.00076453

>  <Shape Index>
0.44444

>  <Molecular Flexibility>
0.6227

>  <Molecular Complexity>
0.71581

>  <Electronegative Atoms>
4

>  <Stereo Centers>
0

>  <Rotatable Bonds>
6

>  <Rings Closures>
1

>  <Aromatic Rings>
1

>  <Aromatic Atoms>
6

>  <Amides>
1

>  <Amines>
0

>  <Aromatic Nitrogens>
0

>  <Shape Index 2>
0.44444

>  <Molecular Flexibility 2>
0.6227

>  <Molecular Complexity 2>
0.71581

>  <Non-C/H Atoms>
4

>  <Electronegative Atoms 2>
4

>  <Stereo Centers 2>
0

>  <Rotatable Bonds 2>
6

>  <Rings Closures 2>
1

>  <Aromatic Rings 2>
1

>  <Aromatic Atoms 2>
6

>  <sp3-Atoms>
8

>  <Amides 2>
1

>  <Amines 2>
0

>  <Aromatic Nitrogens 2>
0

>  <Basic Nitrogens>
0

$$$$
Fenoxaprop-ethyl
Actelion Java MolfileCreator 2.0

  0  0  0  0  0  0              0 V3000
M  V30 BEGIN CTAB
M  V30 COUNTS 25 27 0 0 0
M  V30 BEGIN ATOM
M  V30 1 Cl 0.0 0.0 0.0 0
M  V30 2 C -0.7508 1.3022 0.0 0
M  V30 3 C -0.0117 2.6044 0.0 0
M  V30 4 C -2.2524 1.3139 0.0 0
M  V30 5 C -0.7625 3.9066 0.0 0
M  V30 6 C -3.0033 2.6161 0.0 0
M  V30 7 O -0.3167 5.3379 0.0 0
M  V30 8 C -2.2642 3.9183 0.0 0
M  V30 9 C -1.5368 6.2295 0.0 0
M  V30 10 N -2.7334 5.3496 0.0 0
M  V30 11 O -1.5485 7.7311 0.0 0
M  V30 12 C -2.8507 8.4819 0.0 0
M  V30 13 C -2.8625 9.9836 0.0 0
M  V30 14 C -4.153 7.7428 0.0 0
M  V30 15 C -4.1647 10.7344 0.0 0
M  V30 16 C -5.4552 8.4937 0.0 0
M  V30 17 C -5.4669 9.9953 0.0 0
M  V30 18 O -6.7691 10.7461 0.0 0
M  V30 19 C -8.0713 10.007 0.0 0 CFG=2
M  V30 20 C -9.3735 10.7579 0.0 0
M  V30 21 C -8.0831 8.5289 0.0 0
M  V30 22 O -9.3853 12.2595 0.0 0
M  V30 23 O -10.6758 10.0188 0.0 0
M  V30 24 C -11.978 10.7696 0.0 0
M  V30 25 C -13.2802 10.0305 0.0 0
M  V30 END ATOM
M  V30 BEGIN BOND
M  V30 1 1 1 2
M  V30 2 2 2 3
M  V30 3 1 2 4
M  V30 4 1 3 5
M  V30 5 2 4 6
M  V30 6 1 5 7
M  V30 7 2 5 8
M  V30 8 1 7 9
M  V30 9 1 8 10
M  V30 10 1 9 11
M  V30 11 1 11 12
M  V30 12 2 12 13
M  V30 13 1 12 14
M  V30 14 1 13 15
M  V30 15 2 14 16
M  V30 16 2 15 17
M  V30 17 1 17 18
M  V30 18 1 19 18 CFG=1
M  V30 19 1 19 20
M  V30 20 1 19 21
M  V30 21 2 20 22
M  V30 22 1 20 23
M  V30 23 1 23 24
M  V30 24 1 24 25
M  V30 25 1 6 8
M  V30 26 2 9 10
M  V30 27 1 16 17
M  V30 END BOND
M  V30 BEGIN COLLECTION
M  V30 MDLV30/STERAC1 ATOMS=(1 19)
M  V30 END COLLECTION
M  V30 END CTAB
M  END
>  <Molecule Name>
Fenoxaprop-ethyl

>  <Order (spectra)>
206

>  <NAME>
Fenoxaprop-ethyl

>  <Molecular Formula>
C18H16NO5Cl

>  <Monoisotopic Mass>
361.071701

>  <SMILES>
CCOC(=O)C(C)OC1=CC=C(OC2=NC3=C(O2)C=C(Cl)C=C3)C=C1

>  <InChI>
InChI=1S/C18H16ClNO5/c1-3-22-17(21)11(2)23-13-5-7-14(8-6-13)24-18-20-15-9-4-12(19)10-16(15)25-18/h4-11H,3H2,1-2H3/t11-/m0/s1

>  <InChIKey>
PQKBPHSEKWERTG-UHFFFAOYSA-N

>  <Kingdom>
Organic compounds

>  <Superclass>
Benzenoids

>  <Class>
Benzene and substituted derivatives

>  <Subclass>
2-phenoxypropionic acid esters

>  <Parent Level 1>
2-phenoxypropionic acid esters

>  <Parent Level 2>


>  <Parent Level 3>


>  <cLogP>
4.296

>  <cLogS>
-6.364

>  <Druglikeness>
-4.2741

>  <NP-class probability>
0.17

>  <SmilesFragFp 3>


>  <MS_READY_SMILES>
CCOC(=O)C(C)OC1=CC=C(OC2=NC3=C(O2)C=C(Cl)C=C3)C=C1

>  <MS_READY_InChI>
InChI=1S/C18H16ClNO5/c1-3-22-17(21)11(2)23-13-5-7-14(8-6-13)24-18-20-15-9-4-12(19)10-16(15)25-18/h4-11H,3H2,1-2H3/t11-/m0/s1

>  <QSAR_READY_SMILES>
CCOC(=O)C(C)OC1=CC=C(OC2=NC3=C(O2)C=C(Cl)C=C3)C=C1

>  <QSAR_READY_InChI>
InChI=1S/C18H16ClNO5/c1-3-22-17(21)11(2)23-13-5-7-14(8-6-13)24-18-20-15-9-4-12(19)10-16(15)25-18/h4-11H,3H2,1-2H3/t11-/m0/s1

>  <DTXSID>
DTXSID2032392

>  <DTXCID>
DTXCID0012392

>  <CASRN>
66441-23-4

>  <EXPOCAST_MEDIAN_EXPOSURE_PREDICTION_MG/KG-BW/DAY>
1.44E-07

>  <BIOCONCENTRATION_FACTOR_TEST_PRED>
230.675

>  <BOILING_POINT_DEGC_TEST_PRED>
410.341

>  <48HR_DAPHNIA_LC50_MOL/L_TEST_PRED>
8.13E-07

>  <DENSITY_G/CM^3_TEST_PRED>
1.337

>  <DEVTOX_TEST_PRED>
0.744

>  <96HR_FATHEAD_MINNOW_MOL/L_TEST_PRED>
2.34E-07

>  <FLASH_POINT_DEGC_TEST_PRED>
220.576

>  <MELTING_POINT_DEGC_TEST_PRED>
113.589

>  <AMES_MUTAGENICITY_TEST_PRED>
0.158

>  <ORAL_RAT_LD50_MOL/KG_TEST_PRED>
0.00342768

>  <SURFACE_TENSION_DYN/CM_TEST_PRED>
-

>  <THERMAL_CONDUCTIVITY_MW/(M*K)_TEST_PRED>
-

>  <TETRAHYMENA_PYRIFORMIS_IGC50_MOL/L_TEST_PRED>
4.35E-06

>  <VISCOSITY_CP_CP_TEST_PRED>
-

>  <VAPOR_PRESSURE_MMHG_TEST_PRED>
5.42E-09

>  <WATER_SOLUBILITY_MOL/L_TEST_PRED>
3.40E-06

>  <ATMOSPHERIC_HYDROXYLATION_RATE_(AOH)_CM3/MOLECULE*SEC_OPERA_PRED>
1.73E-11

>  <BIOCONCENTRATION_FACTOR_OPERA_PRED>
174.804

>  <BIODEGRADATION_HALF_LIFE_DAYS_DAYS_OPERA_PRED>
5.14987

>  <BOILING_POINT_DEGC_OPERA_PRED>
389.747

>  <HENRYS_LAW_ATM-M3/MOLE_OPERA_PRED>
1.43E-07

>  <OPERA_KM_DAYS_OPERA_PRED>
0.871904

>  <OCTANOL_AIR_PARTITION_COEFF_LOGKOA_OPERA_PRED>
11.5299

>  <SOIL_ADSORPTION_COEFFICIENT_KOC_L/KG_OPERA_PRED>
9511.02

>  <OCTANOL_WATER_PARTITION_LOGP_OPERA_PRED>
4.57892

>  <MELTING_POINT_DEGC_OPERA_PRED>
86.1674

>  <VAPOR_PRESSURE_MMHG_OPERA_PRED>
2.99E-08

>  <WATER_SOLUBILITY_MOL/L_OPERA_PRED>
2.46E-06

>  <Shape Index>
0.68

>  <Molecular Flexibility>
0.48372

>  <Molecular Complexity>
0.76921

>  <Electronegative Atoms>
7

>  <Stereo Centers>
1

>  <Rotatable Bonds>
7

>  <Rings Closures>
3

>  <Aromatic Rings>
3

>  <Aromatic Atoms>
15

>  <Amides>
0

>  <Amines>
0

>  <Aromatic Nitrogens>
1

>  <Shape Index 2>
0.68

>  <Molecular Flexibility 2>
0.48372

>  <Molecular Complexity 2>
0.76921

>  <Non-C/H Atoms>
7

>  <Electronegative Atoms 2>
7

>  <Stereo Centers 2>
1

>  <Rotatable Bonds 2>
7

>  <Rings Closures 2>
3

>  <Aromatic Rings 2>
3

>  <Aromatic Atoms 2>
15

>  <sp3-Atoms>
7

>  <Amides 2>
0

>  <Amines 2>
0

>  <Aromatic Nitrogens 2>
1

>  <Basic Nitrogens>
0

$$$$
Metazachlor
Actelion Java MolfileCreator 2.0

  0  0  0  0  0  0              0 V3000
M  V30 BEGIN CTAB
M  V30 COUNTS 19 20 0 0 0
M  V30 BEGIN ATOM
M  V30 1 Cl 0.0 0.0 0.0 0
M  V30 2 C -1.3082 -0.7307 0.0 0
M  V30 3 C -2.6165 0.0235 0.0 0
M  V30 4 O -2.6283 1.5322 0.0 0
M  V30 5 N -3.9248 -0.7071 0.0 0
M  V30 6 C -3.9366 -2.1922 0.0 0
M  V30 7 C -5.233 0.0471 0.0 0
M  V30 8 C -5.2448 -2.9229 0.0 0
M  V30 9 C -2.6519 -2.9229 0.0 0
M  V30 10 N -5.2448 1.5557 0.0 0
M  V30 11 C -5.2566 -4.408 0.0 0
M  V30 12 C -6.5531 -2.1686 0.0 0
M  V30 13 C -2.6636 -4.408 0.0 0
M  V30 14 C -1.3672 -2.1686 0.0 0
M  V30 15 N -6.4706 2.4515 0.0 0
M  V30 16 C -4.0426 2.4515 0.0 0
M  V30 17 C -3.9719 -5.1505 0.0 0
M  V30 18 C -6.0227 3.8894 0.0 0
M  V30 19 C -4.5141 3.8894 0.0 0
M  V30 END ATOM
M  V30 BEGIN BOND
M  V30 1 1 1 2
M  V30 2 1 2 3
M  V30 3 2 3 4
M  V30 4 1 3 5
M  V30 5 1 5 6
M  V30 6 1 5 7
M  V30 7 2 6 8
M  V30 8 1 6 9
M  V30 9 1 7 10
M  V30 10 1 8 11
M  V30 11 1 8 12
M  V30 12 2 9 13
M  V30 13 1 9 14
M  V30 14 1 10 15
M  V30 15 1 10 16
M  V30 16 2 11 17
M  V30 17 2 15 18
M  V30 18 2 16 19
M  V30 19 1 13 17
M  V30 20 1 18 19
M  V30 END BOND
M  V30 END CTAB
M  END
>  <Molecule Name>
Metazachlor

>  <Order (spectra)>
209

>  <NAME>
Metazachlor

>  <Molecular Formula>
C14H16N3OCl

>  <Monoisotopic Mass>
277.098189

>  <SMILES>
CC1=CC=CC(C)=C1N(CN1C=CC=N1)C(=O)CCl

>  <InChI>
InChI=1S/C14H16ClN3O/c1-11-5-3-6-12(2)14(11)18(13(19)9-15)10-17-8-4-7-16-17/h3-8H,9-10H2,1-2H3

>  <InChIKey>
STEPQTYSZVCJPV-UHFFFAOYSA-N

>  <Kingdom>
Organic compounds

>  <Superclass>
Benzenoids

>  <Class>
Benzene and substituted derivatives

>  <Subclass>
Anilides

>  <Parent Level 1>
Anilides

>  <Parent Level 2>


>  <Parent Level 3>


>  <cLogP>
2.536

>  <cLogS>
-3.255

>  <Druglikeness>
4.4837

>  <NP-class probability>
0.03

>  <SmilesFragFp 3>


>  <MS_READY_SMILES>
CC1=CC=CC(C)=C1N(CN1C=CC=N1)C(=O)CCl

>  <MS_READY_InChI>
InChI=1S/C14H16ClN3O/c1-11-5-3-6-12(2)14(11)18(13(19)9-15)10-17-8-4-7-16-17/h3-8H,9-10H2,1-2H3

>  <QSAR_READY_SMILES>
CC1=CC=CC(C)=C1N(CN1C=CC=N1)C(=O)CCl

>  <QSAR_READY_InChI>
InChI=1S/C14H16ClN3O/c1-11-5-3-6-12(2)14(11)18(13(19)9-15)10-17-8-4-7-16-17/h3-8H,9-10H2,1-2H3

>  <DTXSID>
DTXSID4058156

>  <DTXCID>
DTXCID0031924

>  <CASRN>
67129-08-2

>  <EXPOCAST_MEDIAN_EXPOSURE_PREDICTION_MG/KG-BW/DAY>
1.42E-07

>  <BIOCONCENTRATION_FACTOR_TEST_PRED>
35.3997

>  <BOILING_POINT_DEGC_TEST_PRED>
371.522

>  <48HR_DAPHNIA_LC50_MOL/L_TEST_PRED>
5.69E-05

>  <DENSITY_G/CM^3_TEST_PRED>
1.22

>  <DEVTOX_TEST_PRED>
0.551

>  <96HR_FATHEAD_MINNOW_MOL/L_TEST_PRED>
1.51E-05

>  <FLASH_POINT_DEGC_TEST_PRED>
194.668

>  <MELTING_POINT_DEGC_TEST_PRED>
102.43

>  <AMES_MUTAGENICITY_TEST_PRED>
0.539

>  <ORAL_RAT_LD50_MOL/KG_TEST_PRED>
0.00309742

>  <SURFACE_TENSION_DYN/CM_TEST_PRED>
-

>  <THERMAL_CONDUCTIVITY_MW/(M*K)_TEST_PRED>
-

>  <TETRAHYMENA_PYRIFORMIS_IGC50_MOL/L_TEST_PRED>
-

>  <VISCOSITY_CP_CP_TEST_PRED>
-

>  <VAPOR_PRESSURE_MMHG_TEST_PRED>
2.22E-07

>  <WATER_SOLUBILITY_MOL/L_TEST_PRED>
0.000312608

>  <ATMOSPHERIC_HYDROXYLATION_RATE_(AOH)_CM3/MOLECULE*SEC_OPERA_PRED>
1.06E-11

>  <BIOCONCENTRATION_FACTOR_OPERA_PRED>
41.1047

>  <BIODEGRADATION_HALF_LIFE_DAYS_DAYS_OPERA_PRED>
3.35856

>  <BOILING_POINT_DEGC_OPERA_PRED>
331.66

>  <HENRYS_LAW_ATM-M3/MOLE_OPERA_PRED>
5.72E-10

>  <OPERA_KM_DAYS_OPERA_PRED>
0.181083

>  <OCTANOL_AIR_PARTITION_COEFF_LOGKOA_OPERA_PRED>
9.58903

>  <SOIL_ADSORPTION_COEFFICIENT_KOC_L/KG_OPERA_PRED>
151.02

>  <OCTANOL_WATER_PARTITION_LOGP_OPERA_PRED>
2.13204

>  <MELTING_POINT_DEGC_OPERA_PRED>
85.0222

>  <VAPOR_PRESSURE_MMHG_OPERA_PRED>
4.51E-07

>  <WATER_SOLUBILITY_MOL/L_OPERA_PRED>
0.00161163

>  <Shape Index>
0.47368

>  <Molecular Flexibility>
0.52131

>  <Molecular Complexity>
0.73536

>  <Electronegative Atoms>
5

>  <Stereo Centers>
0

>  <Rotatable Bonds>
4

>  <Rings Closures>
2

>  <Aromatic Rings>
2

>  <Aromatic Atoms>
11

>  <Amides>
1

>  <Amines>
0

>  <Aromatic Nitrogens>
2

>  <Shape Index 2>
0.47368

>  <Molecular Flexibility 2>
0.52131

>  <Molecular Complexity 2>
0.73536

>  <Non-C/H Atoms>
5

>  <Electronegative Atoms 2>
5

>  <Stereo Centers 2>
0

>  <Rotatable Bonds 2>
4

>  <Rings Closures 2>
2

>  <Aromatic Rings 2>
2

>  <Aromatic Atoms 2>
11

>  <sp3-Atoms>
4

>  <Amides 2>
1

>  <Amines 2>
0

>  <Aromatic Nitrogens 2>
2

>  <Basic Nitrogens>
0

$$$$
Metolachlor
Actelion Java MolfileCreator 2.0

  0  0  0  0  0  0              0 V3000
M  V30 BEGIN CTAB
M  V30 COUNTS 19 19 0 0 0
M  V30 BEGIN ATOM
M  V30 1 Cl 0.0 0.0 0.0 0
M  V30 2 C -1.31 -0.7317 0.0 0
M  V30 3 C -2.6201 0.0236 0.0 0
M  V30 4 O -2.6319 1.5343 0.0 0
M  V30 5 N -3.9302 -0.7081 0.0 0
M  V30 6 C -3.942 -2.1952 0.0 0
M  V30 7 C -5.2403 0.0472 0.0 0 CFG=2
M  V30 8 C -5.2521 -2.927 0.0 0
M  V30 9 C -2.6555 -2.927 0.0 0
M  V30 10 C -6.5504 -0.6845 0.0 0
M  V30 11 C -5.2521 1.5579 0.0 0
M  V30 12 C -5.2639 -4.4141 0.0 0
M  V30 13 C -6.5622 -2.1716 0.0 0
M  V30 14 C -2.6673 -4.4141 0.0 0
M  V30 15 C -1.3691 -2.1716 0.0 0
M  V30 16 O -7.8605 0.0708 0.0 0
M  V30 17 C -3.9774 -5.1577 0.0 0
M  V30 18 C -7.8723 -2.9034 0.0 0
M  V30 19 C -9.1706 -0.6609 0.0 0
M  V30 END ATOM
M  V30 BEGIN BOND
M  V30 1 1 1 2
M  V30 2 1 2 3
M  V30 3 2 3 4
M  V30 4 1 3 5
M  V30 5 1 5 6
M  V30 6 1 7 5 CFG=3
M  V30 7 2 6 8
M  V30 8 1 6 9
M  V30 9 1 7 10
M  V30 10 1 7 11
M  V30 11 1 8 12
M  V30 12 1 8 13
M  V30 13 2 9 14
M  V30 14 1 9 15
M  V30 15 1 10 16
M  V30 16 2 12 17
M  V30 17 1 13 18
M  V30 18 1 16 19
M  V30 19 1 14 17
M  V30 END BOND
M  V30 BEGIN COLLECTION
M  V30 MDLV30/STERAC1 ATOMS=(1 7)
M  V30 END COLLECTION
M  V30 END CTAB
M  END
>  <Molecule Name>
Metolachlor

>  <Order (spectra)>
210

>  <NAME>
Metolachlor

>  <Molecular Formula>
C15H22NO2Cl

>  <Monoisotopic Mass>
283.133906

>  <SMILES>
CCC1=C(N(C(C)COC)C(=O)CCl)C(C)=CC=C1

>  <InChI>
InChI=1S/C15H22ClNO2/c1-5-13-8-6-7-11(2)15(13)17(14(18)9-16)12(3)10-19-4/h6-8,12H,5,9-10H2,1-4H3/t12-/m0/s1

>  <InChIKey>
WVQBLGZPHOPPFO-UHFFFAOYSA-N

>  <Kingdom>
Organic compounds

>  <Superclass>
Benzenoids

>  <Class>
Benzene and substituted derivatives

>  <Subclass>
Anilides

>  <Parent Level 1>
Anilides

>  <Parent Level 2>


>  <Parent Level 3>


>  <cLogP>
3.2122

>  <cLogS>
-3.481

>  <Druglikeness>
1.9977

>  <NP-class probability>
0.78

>  <SmilesFragFp 3>


>  <MS_READY_SMILES>
CCC1=C(N(C(C)COC)C(=O)CCl)C(C)=CC=C1

>  <MS_READY_InChI>
InChI=1S/C15H22ClNO2/c1-5-13-8-6-7-11(2)15(13)17(14(18)9-16)12(3)10-19-4/h6-8,12H,5,9-10H2,1-4H3/t12-/m0/s1

>  <QSAR_READY_SMILES>
CCC1=C(N(C(C)COC)C(=O)CCl)C(C)=CC=C1

>  <QSAR_READY_InChI>
InChI=1S/C15H22ClNO2/c1-5-13-8-6-7-11(2)15(13)17(14(18)9-16)12(3)10-19-4/h6-8,12H,5,9-10H2,1-4H3/t12-/m0/s1

>  <DTXSID>
DTXSID4022448

>  <DTXCID>
DTXCID402448

>  <CASRN>
51218-45-2

>  <EXPOCAST_MEDIAN_EXPOSURE_PREDICTION_MG/KG-BW/DAY>
2.07E-07

>  <BIOCONCENTRATION_FACTOR_TEST_PRED>
30.2691

>  <BOILING_POINT_DEGC_TEST_PRED>
342.591

>  <48HR_DAPHNIA_LC50_MOL/L_TEST_PRED>
2.09E-05

>  <DENSITY_G/CM^3_TEST_PRED>
1.097

>  <DEVTOX_TEST_PRED>
0.673

>  <96HR_FATHEAD_MINNOW_MOL/L_TEST_PRED>
1.78E-05

>  <FLASH_POINT_DEGC_TEST_PRED>
209.975

>  <MELTING_POINT_DEGC_TEST_PRED>
13.416

>  <AMES_MUTAGENICITY_TEST_PRED>
0.421

>  <ORAL_RAT_LD50_MOL/KG_TEST_PRED>
0.00663743

>  <SURFACE_TENSION_DYN/CM_TEST_PRED>
-

>  <THERMAL_CONDUCTIVITY_MW/(M*K)_TEST_PRED>
142.749

>  <TETRAHYMENA_PYRIFORMIS_IGC50_MOL/L_TEST_PRED>
0.000033266

>  <VISCOSITY_CP_CP_TEST_PRED>
42.9536

>  <VAPOR_PRESSURE_MMHG_TEST_PRED>
7.64E-06

>  <WATER_SOLUBILITY_MOL/L_TEST_PRED>
0.000897429

>  <ATMOSPHERIC_HYDROXYLATION_RATE_(AOH)_CM3/MOLECULE*SEC_OPERA_PRED>
1.97E-11

>  <BIOCONCENTRATION_FACTOR_OPERA_PRED>
54.8956

>  <BIODEGRADATION_HALF_LIFE_DAYS_DAYS_OPERA_PRED>
4.88029

>  <BOILING_POINT_DEGC_OPERA_PRED>
282.035

>  <HENRYS_LAW_ATM-M3/MOLE_OPERA_PRED>
9.01E-09

>  <OPERA_KM_DAYS_OPERA_PRED>
0.179642

>  <OCTANOL_AIR_PARTITION_COEFF_LOGKOA_OPERA_PRED>
9.38799

>  <SOIL_ADSORPTION_COEFFICIENT_KOC_L/KG_OPERA_PRED>
288.006

>  <OCTANOL_WATER_PARTITION_LOGP_OPERA_PRED>
3.13089

>  <MELTING_POINT_DEGC_OPERA_PRED>
-49.1762

>  <VAPOR_PRESSURE_MMHG_OPERA_PRED>
3.11E-05

>  <WATER_SOLUBILITY_MOL/L_OPERA_PRED>
0.0018257

>  <Shape Index>
0.47368

>  <Molecular Flexibility>
0.64662

>  <Molecular Complexity>
0.74185

>  <Electronegative Atoms>
4

>  <Stereo Centers>
1

>  <Rotatable Bonds>
6

>  <Rings Closures>
1

>  <Aromatic Rings>
1

>  <Aromatic Atoms>
6

>  <Amides>
1

>  <Amines>
0

>  <Aromatic Nitrogens>
0

>  <Shape Index 2>
0.47368

>  <Molecular Flexibility 2>
0.64662

>  <Molecular Complexity 2>
0.74185

>  <Non-C/H Atoms>
4

>  <Electronegative Atoms 2>
4

>  <Stereo Centers 2>
1

>  <Rotatable Bonds 2>
6

>  <Rings Closures 2>
1

>  <Aromatic Rings 2>
1

>  <Aromatic Atoms 2>
6

>  <sp3-Atoms>
9

>  <Amides 2>
1

>  <Amines 2>
0

>  <Aromatic Nitrogens 2>
0

>  <Basic Nitrogens>
0

$$$$
Pendimethalin
Actelion Java MolfileCreator 2.0

  0  0  0  0  0  0              0 V3000
M  V30 BEGIN CTAB
M  V30 COUNTS 20 20 0 0 0
M  V30 BEGIN ATOM
M  V30 1 O 0.0 0.0 0.0 0
M  V30 2 N -1.325 -0.7536 0.0 0 CHG=1
M  V30 3 O -2.2853 0.0607 0.0 0 CHG=-1
M  V30 4 C -1.3371 -2.261 0.0 0
M  V30 5 C -2.6621 -3.0147 0.0 0
M  V30 6 C -0.0364 -3.0147 0.0 0
M  V30 7 N -3.9871 -2.2367 0.0 0
M  V30 8 C -2.6743 -4.522 0.0 0
M  V30 9 C -0.0486 -4.522 0.0 0
M  V30 10 C 1.2642 -2.2367 0.0 0
M  V30 11 C -3.9993 -0.705 0.0 0
M  V30 12 N -3.9993 -5.2757 0.0 0 CHG=1
M  V30 13 C -1.3736 -5.2757 0.0 0
M  V30 14 C 1.252 -5.2757 0.0 0
M  V30 15 C -2.8809 0.0486 0.0 0
M  V30 16 C -5.3243 0.0729 0.0 0
M  V30 17 O -5.3243 -4.4977 0.0 0
M  V30 18 O -4.0115 -6.783 0.0 0 CHG=-1
M  V30 19 C -2.6986 1.6046 0.0 0
M  V30 20 C -5.3365 1.6046 0.0 0
M  V30 END ATOM
M  V30 BEGIN BOND
M  V30 1 2 1 2
M  V30 2 1 2 3
M  V30 3 1 2 4
M  V30 4 2 4 5
M  V30 5 1 4 6
M  V30 6 1 5 7
M  V30 7 1 5 8
M  V30 8 2 6 9
M  V30 9 1 6 10
M  V30 10 1 7 11
M  V30 11 1 8 12
M  V30 12 2 8 13
M  V30 13 1 9 14
M  V30 14 1 11 15
M  V30 15 1 11 16
M  V30 16 2 12 17
M  V30 17 1 12 18
M  V30 18 1 15 19
M  V30 19 1 16 20
M  V30 20 1 9 13
M  V30 END BOND
M  V30 END CTAB
M  END
>  <Molecule Name>
Pendimethalin

>  <Order (spectra)>
212

>  <NAME>
Pendimethalin

>  <Molecular Formula>
C13H19N3O4

>  <Monoisotopic Mass>
281.137557

>  <SMILES>
CCC(CC)NC1=C(C(C)=C(C)C=C1[N+]([O-])=O)[N+]([O-])=O

>  <InChI>
InChI=1S/C13H19N3O4/c1-5-10(6-2)14-12-11(15(17)18)7-8(3)9(4)13(12)16(19)20/h7,10,14H,5-6H2,1-4H3

>  <InChIKey>
CHIFOSRWCNZCFN-UHFFFAOYSA-N

>  <Kingdom>
Organic compounds

>  <Superclass>
Benzenoids

>  <Class>
Benzene and substituted derivatives

>  <Subclass>
Aniline and substituted anilines

>  <Parent Level 1>
Dinitroanilines

>  <Parent Level 2>


>  <Parent Level 3>


>  <cLogP>
1.8256

>  <cLogS>
-4.502

>  <Druglikeness>
-4.6371

>  <NP-class probability>
0.4

>  <SmilesFragFp 3>


>  <MS_READY_SMILES>
CCC(CC)NC1=C(C(C)=C(C)C=C1[N+]([O-])=O)[N+]([O-])=O

>  <MS_READY_InChI>
InChI=1S/C13H19N3O4/c1-5-10(6-2)14-12-11(15(17)18)7-8(3)9(4)13(12)16(19)20/h7,10,14H,5-6H2,1-4H3

>  <QSAR_READY_SMILES>
CCC(CC)NC1=C(C(C)=C(C)C=C1[N+]([O-])=O)[N+]([O-])=O

>  <QSAR_READY_InChI>
InChI=1S/C13H19N3O4/c1-5-10(6-2)14-12-11(15(17)18)7-8(3)9(4)13(12)16(19)20/h7,10,14H,5-6H2,1-4H3

>  <DTXSID>
DTXSID7024245

>  <DTXCID>
DTXCID004245

>  <CASRN>
40487-42-1

>  <EXPOCAST_MEDIAN_EXPOSURE_PREDICTION_MG/KG-BW/DAY>
8.28E-07

>  <BIOCONCENTRATION_FACTOR_TEST_PRED>
59.5662

>  <BOILING_POINT_DEGC_TEST_PRED>
363.278

>  <48HR_DAPHNIA_LC50_MOL/L_TEST_PRED>
2.91E-06

>  <DENSITY_G/CM^3_TEST_PRED>
1.254

>  <DEVTOX_TEST_PRED>
0.948

>  <96HR_FATHEAD_MINNOW_MOL/L_TEST_PRED>
6.90E-07

>  <FLASH_POINT_DEGC_TEST_PRED>
173.98

>  <MELTING_POINT_DEGC_TEST_PRED>
83.132

>  <AMES_MUTAGENICITY_TEST_PRED>
0.117

>  <ORAL_RAT_LD50_MOL/KG_TEST_PRED>
0.00674528

>  <SURFACE_TENSION_DYN/CM_TEST_PRED>
-

>  <THERMAL_CONDUCTIVITY_MW/(M*K)_TEST_PRED>
146.792

>  <TETRAHYMENA_PYRIFORMIS_IGC50_MOL/L_TEST_PRED>
3.12E-06

>  <VISCOSITY_CP_CP_TEST_PRED>
38.0189

>  <VAPOR_PRESSURE_MMHG_TEST_PRED>
6.21E-07

>  <WATER_SOLUBILITY_MOL/L_TEST_PRED>
9.84E-06

>  <ATMOSPHERIC_HYDROXYLATION_RATE_(AOH)_CM3/MOLECULE*SEC_OPERA_PRED>
1.38E-11

>  <BIOCONCENTRATION_FACTOR_OPERA_PRED>
578.79

>  <BIODEGRADATION_HALF_LIFE_DAYS_DAYS_OPERA_PRED>
3.54085

>  <BOILING_POINT_DEGC_OPERA_PRED>
330.011

>  <HENRYS_LAW_ATM-M3/MOLE_OPERA_PRED>
7.77E-07

>  <OPERA_KM_DAYS_OPERA_PRED>
1.90558

>  <OCTANOL_AIR_PARTITION_COEFF_LOGKOA_OPERA_PRED>
10.1984

>  <SOIL_ADSORPTION_COEFFICIENT_KOC_L/KG_OPERA_PRED>
5013.25

>  <OCTANOL_WATER_PARTITION_LOGP_OPERA_PRED>
5.1983

>  <MELTING_POINT_DEGC_OPERA_PRED>
56.0787

>  <VAPOR_PRESSURE_MMHG_OPERA_PRED>
2.99E-05

>  <WATER_SOLUBILITY_MOL/L_OPERA_PRED>
0.000001074

>  <Shape Index>
0.45

>  <Molecular Flexibility>
0.65131

>  <Molecular Complexity>
0.84127

>  <Electronegative Atoms>
7

>  <Stereo Centers>
0

>  <Rotatable Bonds>
6

>  <Rings Closures>
1

>  <Aromatic Rings>
1

>  <Aromatic Atoms>
6

>  <Amides>
0

>  <Amines>
1

>  <Aromatic Nitrogens>
0

>  <Shape Index 2>
0.45

>  <Molecular Flexibility 2>
0.65131

>  <Molecular Complexity 2>
0.84127

>  <Non-C/H Atoms>
7

>  <Electronegative Atoms 2>
7

>  <Stereo Centers 2>
0

>  <Rotatable Bonds 2>
6

>  <Rings Closures 2>
1

>  <Aromatic Rings 2>
1

>  <Aromatic Atoms 2>
6

>  <sp3-Atoms>
10

>  <Amides 2>
0

>  <Amines 2>
1

>  <Aromatic Nitrogens 2>
0

>  <Basic Nitrogens>
0

$$$$
Trifluralin
Actelion Java MolfileCreator 2.0

  0  0  0  0  0  0              0 V3000
M  V30 BEGIN CTAB
M  V30 COUNTS 23 23 0 0 0
M  V30 BEGIN ATOM
M  V30 1 F 0.0 0.0 0.0 0
M  V30 2 C 1.4954 0.0118 0.0 0
M  V30 3 F 1.4836 1.531 0.0 0
M  V30 4 F 2.9909 0.0237 0.0 0
M  V30 5 C 1.4836 -1.4836 0.0 0
M  V30 6 C 0.1661 -2.2313 0.0 0
M  V30 7 C 2.7773 -2.2194 0.0 0
M  V30 8 C 0.1542 -3.7268 0.0 0
M  V30 9 C 2.7654 -3.7149 0.0 0
M  V30 10 N -1.1631 -4.4626 0.0 0 CHG=1
M  V30 11 C 1.4479 -4.4626 0.0 0
M  V30 12 N 4.0591 -4.4508 0.0 0 CHG=1
M  V30 13 O -2.4805 -3.703 0.0 0
M  V30 14 O -1.175 -5.9581 0.0 0 CHG=-1
M  V30 15 N 1.4361 -5.9581 0.0 0
M  V30 16 O 4.0472 -5.9462 0.0 0
M  V30 17 O 5.3528 -3.6793 0.0 0 CHG=-1
M  V30 18 C 2.7298 -6.694 0.0 0
M  V30 19 C 0.1186 -6.694 0.0 0
M  V30 20 C 2.7179 -8.1895 0.0 0
M  V30 21 C 0.1068 -8.1895 0.0 0
M  V30 22 C 4.0116 -8.9253 0.0 0
M  V30 23 C -1.2106 -8.9253 0.0 0
M  V30 END ATOM
M  V30 BEGIN BOND
M  V30 1 1 1 2
M  V30 2 1 2 3
M  V30 3 1 2 4
M  V30 4 1 2 5
M  V30 5 2 5 6
M  V30 6 1 5 7
M  V30 7 1 6 8
M  V30 8 2 7 9
M  V30 9 1 8 10
M  V30 10 2 8 11
M  V30 11 1 9 12
M  V30 12 2 10 13
M  V30 13 1 10 14
M  V30 14 1 11 15
M  V30 15 2 12 16
M  V30 16 1 12 17
M  V30 17 1 15 18
M  V30 18 1 15 19
M  V30 19 1 18 20
M  V30 20 1 19 21
M  V30 21 1 20 22
M  V30 22 1 21 23
M  V30 23 1 9 11
M  V30 END BOND
M  V30 END CTAB
M  END
>  <Molecule Name>
Trifluralin

>  <Order (spectra)>
216

>  <NAME>
Trifluralin

>  <Molecular Formula>
C13H16N3O4F3

>  <Monoisotopic Mass>
335.109291

>  <SMILES>
CCCN(CCC)C1=C(C=C(C=C1[N+]([O-])=O)C(F)(F)F)[N+]([O-])=O

>  <InChI>
InChI=1S/C13H16F3N3O4/c1-3-5-17(6-4-2)12-10(18(20)21)7-9(13(14,15)16)8-11(12)19(22)23/h7-8H,3-6H2,1-2H3

>  <InChIKey>
ZSDSQXJSNMTJDA-UHFFFAOYSA-N

>  <Kingdom>
Organic compounds

>  <Superclass>
Benzenoids

>  <Class>
Benzene and substituted derivatives

>  <Subclass>
Aniline and substituted anilines

>  <Parent Level 1>
Dinitroanilines

>  <Parent Level 2>


>  <Parent Level 3>


>  <cLogP>
2.2825

>  <cLogS>
-4.49

>  <Druglikeness>
-9.8354

>  <NP-class probability>
0.05

>  <SmilesFragFp 3>


>  <MS_READY_SMILES>
CCCN(CCC)C1=C(C=C(C=C1[N+]([O-])=O)C(F)(F)F)[N+]([O-])=O

>  <MS_READY_InChI>
InChI=1S/C13H16F3N3O4/c1-3-5-17(6-4-2)12-10(18(20)21)7-9(13(14,15)16)8-11(12)19(22)23/h7-8H,3-6H2,1-2H3

>  <QSAR_READY_SMILES>
CCCN(CCC)C1=C(C=C(C=C1[N+]([O-])=O)C(F)(F)F)[N+]([O-])=O

>  <QSAR_READY_InChI>
InChI=1S/C13H16F3N3O4/c1-3-5-17(6-4-2)12-10(18(20)21)7-9(13(14,15)16)8-11(12)19(22)23/h7-8H,3-6H2,1-2H3

>  <DTXSID>
DTXSID4021395

>  <DTXCID>
DTXCID401395

>  <CASRN>
1582-09-8

>  <EXPOCAST_MEDIAN_EXPOSURE_PREDICTION_MG/KG-BW/DAY>
5.59E-08

>  <BIOCONCENTRATION_FACTOR_TEST_PRED>
149.624

>  <BOILING_POINT_DEGC_TEST_PRED>
369.442

>  <48HR_DAPHNIA_LC50_MOL/L_TEST_PRED>
6.07E-06

>  <DENSITY_G/CM^3_TEST_PRED>
1.409

>  <DEVTOX_TEST_PRED>
1.145

>  <96HR_FATHEAD_MINNOW_MOL/L_TEST_PRED>
6.24E-07

>  <FLASH_POINT_DEGC_TEST_PRED>
161.745

>  <MELTING_POINT_DEGC_TEST_PRED>
68.678

>  <AMES_MUTAGENICITY_TEST_PRED>
0.445

>  <ORAL_RAT_LD50_MOL/KG_TEST_PRED>
0.0136773

>  <SURFACE_TENSION_DYN/CM_TEST_PRED>
-

>  <THERMAL_CONDUCTIVITY_MW/(M*K)_TEST_PRED>
-

>  <TETRAHYMENA_PYRIFORMIS_IGC50_MOL/L_TEST_PRED>
7.14E-06

>  <VISCOSITY_CP_CP_TEST_PRED>
-

>  <VAPOR_PRESSURE_MMHG_TEST_PRED>
2.92E-06

>  <WATER_SOLUBILITY_MOL/L_TEST_PRED>
2.00E-06

>  <ATMOSPHERIC_HYDROXYLATION_RATE_(AOH)_CM3/MOLECULE*SEC_OPERA_PRED>
1.39E-11

>  <BIOCONCENTRATION_FACTOR_OPERA_PRED>
2279.43

>  <BIODEGRADATION_HALF_LIFE_DAYS_DAYS_OPERA_PRED>
3.54656

>  <BOILING_POINT_DEGC_OPERA_PRED>
365.044

>  <HENRYS_LAW_ATM-M3/MOLE_OPERA_PRED>
0.000102672

>  <OPERA_KM_DAYS_OPERA_PRED>
4.15594

>  <OCTANOL_AIR_PARTITION_COEFF_LOGKOA_OPERA_PRED>
8.41432

>  <SOIL_ADSORPTION_COEFFICIENT_KOC_L/KG_OPERA_PRED>
15764.7

>  <OCTANOL_WATER_PARTITION_LOGP_OPERA_PRED>
5.3382

>  <MELTING_POINT_DEGC_OPERA_PRED>
49.7774

>  <VAPOR_PRESSURE_MMHG_OPERA_PRED>
4.60E-05

>  <WATER_SOLUBILITY_MOL/L_OPERA_PRED>
8.50E-07

>  <Shape Index>
0.43478

>  <Molecular Flexibility>
0.68672

>  <Molecular Complexity>
0.81096

>  <Electronegative Atoms>
10

>  <Stereo Centers>
0

>  <Rotatable Bonds>
8

>  <Rings Closures>
1

>  <Aromatic Rings>
1

>  <Aromatic Atoms>
6

>  <Amides>
0

>  <Amines>
1

>  <Aromatic Nitrogens>
0

>  <Shape Index 2>
0.43478

>  <Molecular Flexibility 2>
0.68672

>  <Molecular Complexity 2>
0.81096

>  <Non-C/H Atoms>
10

>  <Electronegative Atoms 2>
10

>  <Stereo Centers 2>
0

>  <Rotatable Bonds 2>
8

>  <Rings Closures 2>
1

>  <Aromatic Rings 2>
1

>  <Aromatic Atoms 2>
6

>  <sp3-Atoms>
10

>  <Amides 2>
0

>  <Amines 2>
1

>  <Aromatic Nitrogens 2>
0

>  <Basic Nitrogens>
0

$$$$
2,2',3,4,4',5',6-Heptabromodiphenyl ether
Actelion Java MolfileCreator 2.0

  0  0  0  0  0  0              0 V3000
M  V30 BEGIN CTAB
M  V30 COUNTS 20 21 0 0 0
M  V30 BEGIN ATOM
M  V30 1 Br 0.0 0.0 0.0 0
M  V30 2 C 1.2886 0.7566 0.0 0
M  V30 3 C 2.5773 0.0236 0.0 0
M  V30 4 C 1.2768 2.2699 0.0 0
M  V30 5 Br 2.5655 -1.466 0.0 0
M  V30 6 C 3.8659 0.7802 0.0 0
M  V30 7 O -0.0354 3.0265 0.0 0
M  V30 8 C 2.5655 3.0265 0.0 0
M  V30 9 Br 5.1546 0.0472 0.0 0
M  V30 10 C 3.8541 2.2935 0.0 0
M  V30 11 C -1.3477 2.2935 0.0 0
M  V30 12 Br 2.5536 4.5398 0.0 0
M  V30 13 C -2.66 3.0502 0.0 0
M  V30 14 C -1.3596 0.8039 0.0 0
M  V30 15 Br -2.6719 4.5635 0.0 0
M  V30 16 C -3.9724 2.3172 0.0 0
M  V30 17 C -2.6719 0.0709 0.0 0
M  V30 18 C -3.9842 0.8275 0.0 0
M  V30 19 Br -2.6837 -1.4187 0.0 0
M  V30 20 Br -5.2965 0.0945 0.0 0
M  V30 END ATOM
M  V30 BEGIN BOND
M  V30 1 1 1 2
M  V30 2 2 2 3
M  V30 3 1 2 4
M  V30 4 1 3 5
M  V30 5 1 3 6
M  V30 6 1 4 7
M  V30 7 2 4 8
M  V30 8 1 6 9
M  V30 9 2 6 10
M  V30 10 1 7 11
M  V30 11 1 8 12
M  V30 12 2 11 13
M  V30 13 1 11 14
M  V30 14 1 13 15
M  V30 15 1 13 16
M  V30 16 2 14 17
M  V30 17 2 16 18
M  V30 18 1 17 19
M  V30 19 1 18 20
M  V30 20 1 8 10
M  V30 21 1 17 18
M  V30 END BOND
M  V30 END CTAB
M  END
>  <Molecule Name>
2,2',3,4,4',5',6-Heptabromodiphenyl ether

>  <Order (spectra)>
217

>  <NAME>
2,2',3,4,4',5',6-Heptabromodiphenyl ether

>  <Molecular Formula>
C12H3OBr7

>  <Monoisotopic Mass>
715.446742

>  <SMILES>
BrC1=CC(Br)=C(OC2=C(Br)C=C(Br)C(Br)=C2Br)C=C1Br

>  <InChI>
InChI=1S/C12H3Br7O/c13-4-1-6(15)9(3-5(4)14)20-12-8(17)2-7(16)10(18)11(12)19/h1-3H

>  <InChIKey>
ILPSCQCLBHQUEM-UHFFFAOYSA-N

>  <Kingdom>
Organic compounds

>  <Superclass>
Benzenoids

>  <Class>
Benzene and substituted derivatives

>  <Subclass>
Diphenylethers

>  <Parent Level 1>
Bromodiphenyl ethers

>  <Parent Level 2>


>  <Parent Level 3>


>  <cLogP>
8.1316

>  <cLogS>
-9.751

>  <Druglikeness>
-4.105

>  <NP-class probability>
0.26

>  <SmilesFragFp 3>


>  <MS_READY_SMILES>
BrC1=CC(Br)=C(OC2=C(Br)C=C(Br)C(Br)=C2Br)C=C1Br

>  <MS_READY_InChI>
InChI=1S/C12H3Br7O/c13-4-1-6(15)9(3-5(4)14)20-12-8(17)2-7(16)10(18)11(12)19/h1-3H

>  <QSAR_READY_SMILES>
BrC1=CC(Br)=C(OC2=C(Br)C=C(Br)C(Br)=C2Br)C=C1Br

>  <QSAR_READY_InChI>
InChI=1S/C12H3Br7O/c13-4-1-6(15)9(3-5(4)14)20-12-8(17)2-7(16)10(18)11(12)19/h1-3H

>  <DTXSID>
DTXSID8052693

>  <DTXCID>
DTXCID2031291

>  <CASRN>
207122-16-5

>  <EXPOCAST_MEDIAN_EXPOSURE_PREDICTION_MG/KG-BW/DAY>
5.06E-08

>  <BIOCONCENTRATION_FACTOR_TEST_PRED>
550.808

>  <BOILING_POINT_DEGC_TEST_PRED>
491.95

>  <48HR_DAPHNIA_LC50_MOL/L_TEST_PRED>
6.68E-09

>  <DENSITY_G/CM^3_TEST_PRED>
3.116

>  <DEVTOX_TEST_PRED>
-

>  <96HR_FATHEAD_MINNOW_MOL/L_TEST_PRED>
1.03E-08

>  <FLASH_POINT_DEGC_TEST_PRED>
222.445

>  <MELTING_POINT_DEGC_TEST_PRED>
267.399

>  <AMES_MUTAGENICITY_TEST_PRED>
-0.075

>  <ORAL_RAT_LD50_MOL/KG_TEST_PRED>
-

>  <SURFACE_TENSION_DYN/CM_TEST_PRED>
-

>  <THERMAL_CONDUCTIVITY_MW/(M*K)_TEST_PRED>
-

>  <TETRAHYMENA_PYRIFORMIS_IGC50_MOL/L_TEST_PRED>
-

>  <VISCOSITY_CP_CP_TEST_PRED>
-

>  <VAPOR_PRESSURE_MMHG_TEST_PRED>
1.26E-09

>  <WATER_SOLUBILITY_MOL/L_TEST_PRED>
5.66E-10

>  <ATMOSPHERIC_HYDROXYLATION_RATE_(AOH)_CM3/MOLECULE*SEC_OPERA_PRED>
9.59E-13

>  <BIOCONCENTRATION_FACTOR_OPERA_PRED>
638518

>  <BIODEGRADATION_HALF_LIFE_DAYS_DAYS_OPERA_PRED>
75.8355

>  <BOILING_POINT_DEGC_OPERA_PRED>
464.712

>  <HENRYS_LAW_ATM-M3/MOLE_OPERA_PRED>
0.00509944

>  <OPERA_KM_DAYS_OPERA_PRED>
44.6996

>  <OCTANOL_AIR_PARTITION_COEFF_LOGKOA_OPERA_PRED>
11.6877

>  <SOIL_ADSORPTION_COEFFICIENT_KOC_L/KG_OPERA_PRED>
301713

>  <OCTANOL_WATER_PARTITION_LOGP_OPERA_PRED>
8.26938

>  <MELTING_POINT_DEGC_OPERA_PRED>
225.16

>  <VAPOR_PRESSURE_MMHG_OPERA_PRED>
3.83E-08

>  <WATER_SOLUBILITY_MOL/L_OPERA_PRED>
4.76E-09

>  <Shape Index>
0.55

>  <Molecular Flexibility>
0.47499

>  <Molecular Complexity>
0.78878

>  <Electronegative Atoms>
8

>  <Stereo Centers>
0

>  <Rotatable Bonds>
2

>  <Rings Closures>
2

>  <Aromatic Rings>
2

>  <Aromatic Atoms>
12

>  <Amides>
0

>  <Amines>
0

>  <Aromatic Nitrogens>
0

>  <Shape Index 2>
0.55

>  <Molecular Flexibility 2>
0.47499

>  <Molecular Complexity 2>
0.78878

>  <Non-C/H Atoms>
8

>  <Electronegative Atoms 2>
8

>  <Stereo Centers 2>
0

>  <Rotatable Bonds 2>
2

>  <Rings Closures 2>
2

>  <Aromatic Rings 2>
2

>  <Aromatic Atoms 2>
12

>  <sp3-Atoms>
1

>  <Amides 2>
0

>  <Amines 2>
0

>  <Aromatic Nitrogens 2>
0

>  <Basic Nitrogens>
0

$$$$
2-Chlorobiphenyl
Actelion Java MolfileCreator 2.0

  0  0  0  0  0  0              0 V3000
M  V30 BEGIN CTAB
M  V30 COUNTS 13 14 0 0 0
M  V30 BEGIN ATOM
M  V30 1 Cl 0.0 0.0 0.0 0
M  V30 2 C -1.3067 -0.7299 0.0 0
M  V30 3 C -2.6135 0.0235 0.0 0
M  V30 4 C -1.3185 -2.2132 0.0 0
M  V30 5 C -2.6253 1.5304 0.0 0
M  V30 6 C -3.9203 -0.7063 0.0 0
M  V30 7 C -2.6253 -2.9432 0.0 0
M  V30 8 C -1.342 2.2839 0.0 0
M  V30 9 C -3.9321 2.2839 0.0 0
M  V30 10 C -3.9321 -2.1897 0.0 0
M  V30 11 C -1.3538 3.7908 0.0 0
M  V30 12 C -3.9438 3.7908 0.0 0
M  V30 13 C -2.6606 4.556 0.0 0
M  V30 END ATOM
M  V30 BEGIN BOND
M  V30 1 1 1 2
M  V30 2 2 2 3
M  V30 3 1 2 4
M  V30 4 1 3 5
M  V30 5 1 3 6
M  V30 6 2 4 7
M  V30 7 2 5 8
M  V30 8 1 5 9
M  V30 9 2 6 10
M  V30 10 1 8 11
M  V30 11 2 9 12
M  V30 12 2 11 13
M  V30 13 1 7 10
M  V30 14 1 12 13
M  V30 END BOND
M  V30 END CTAB
M  END
>  <Molecule Name>
2-Chlorobiphenyl

>  <Order (spectra)>
218

>  <NAME>
2-Chlorobiphenyl

>  <Molecular Formula>
C12H9Cl

>  <Monoisotopic Mass>
188.039277

>  <SMILES>
ClC1=C(C=CC=C1)C1=CC=CC=C1

>  <InChI>
InChI=1S/C12H9Cl/c13-12-9-5-4-8-11(12)10-6-2-1-3-7-10/h1-9H

>  <InChIKey>
LAXBNTIAOJWAOP-UHFFFAOYSA-N

>  <Kingdom>
Organic compounds

>  <Superclass>
Benzenoids

>  <Class>
Benzene and substituted derivatives

>  <Subclass>
Biphenyls and derivatives

>  <Parent Level 1>
Chlorinated biphenyls

>  <Parent Level 2>


>  <Parent Level 3>


>  <cLogP>
3.9248

>  <cLogS>
-4.438

>  <Druglikeness>
-1.9661

>  <NP-class probability>
0.01

>  <SmilesFragFp 3>


>  <MS_READY_SMILES>
ClC1=C(C=CC=C1)C1=CC=CC=C1

>  <MS_READY_InChI>
InChI=1S/C12H9Cl/c13-12-9-5-4-8-11(12)10-6-2-1-3-7-10/h1-9H

>  <QSAR_READY_SMILES>
ClC1=C(C=CC=C1)C1=CC=CC=C1

>  <QSAR_READY_InChI>
InChI=1S/C12H9Cl/c13-12-9-5-4-8-11(12)10-6-2-1-3-7-10/h1-9H

>  <DTXSID>
DTXSID6040298

>  <DTXCID>
DTXCID4020298

>  <CASRN>
2051-60-7

>  <EXPOCAST_MEDIAN_EXPOSURE_PREDICTION_MG/KG-BW/DAY>
1.24E-11

>  <BIOCONCENTRATION_FACTOR_TEST_PRED>
2466.04

>  <BOILING_POINT_DEGC_TEST_PRED>
277.997

>  <48HR_DAPHNIA_LC50_MOL/L_TEST_PRED>
1.56E-06

>  <DENSITY_G/CM^3_TEST_PRED>
1.161

>  <DEVTOX_TEST_PRED>
0.508

>  <96HR_FATHEAD_MINNOW_MOL/L_TEST_PRED>
7.82E-06

>  <FLASH_POINT_DEGC_TEST_PRED>
135.572

>  <MELTING_POINT_DEGC_TEST_PRED>
42.547

>  <AMES_MUTAGENICITY_TEST_PRED>
0.708

>  <ORAL_RAT_LD50_MOL/KG_TEST_PRED>
0.0157398

>  <SURFACE_TENSION_DYN/CM_TEST_PRED>
42.67

>  <THERMAL_CONDUCTIVITY_MW/(M*K)_TEST_PRED>
128.718

>  <TETRAHYMENA_PYRIFORMIS_IGC50_MOL/L_TEST_PRED>
3.97E-05

>  <VISCOSITY_CP_CP_TEST_PRED>
-

>  <VAPOR_PRESSURE_MMHG_TEST_PRED>
0.00410204

>  <WATER_SOLUBILITY_MOL/L_TEST_PRED>
1.71E-05

>  <ATMOSPHERIC_HYDROXYLATION_RATE_(AOH)_CM3/MOLECULE*SEC_OPERA_PRED>
2.85E-12

>  <BIOCONCENTRATION_FACTOR_OPERA_PRED>
4491.99

>  <BIODEGRADATION_HALF_LIFE_DAYS_DAYS_OPERA_PRED>
7.40285

>  <BOILING_POINT_DEGC_OPERA_PRED>
283.815

>  <HENRYS_LAW_ATM-M3/MOLE_OPERA_PRED>
0.000731787

>  <OPERA_KM_DAYS_OPERA_PRED>
7.04714

>  <OCTANOL_AIR_PARTITION_COEFF_LOGKOA_OPERA_PRED>
6.85038

>  <SOIL_ADSORPTION_COEFFICIENT_KOC_L/KG_OPERA_PRED>
2952.99

>  <OCTANOL_WATER_PARTITION_LOGP_OPERA_PRED>
4.47388

>  <MELTING_POINT_DEGC_OPERA_PRED>
36.5317

>  <VAPOR_PRESSURE_MMHG_OPERA_PRED>
0.00141577

>  <WATER_SOLUBILITY_MOL/L_OPERA_PRED>
2.68E-05

>  <Shape Index>
0.61538

>  <Molecular Flexibility>
0.38764

>  <Molecular Complexity>
0.59634

>  <Electronegative Atoms>
1

>  <Stereo Centers>
0

>  <Rotatable Bonds>
1

>  <Rings Closures>
2

>  <Aromatic Rings>
2

>  <Aromatic Atoms>
12

>  <Amides>
0

>  <Amines>
0

>  <Aromatic Nitrogens>
0

>  <Shape Index 2>
0.61538

>  <Molecular Flexibility 2>
0.38764

>  <Molecular Complexity 2>
0.59634

>  <Non-C/H Atoms>
1

>  <Electronegative Atoms 2>
1

>  <Stereo Centers 2>
0

>  <Rotatable Bonds 2>
1

>  <Rings Closures 2>
2

>  <Aromatic Rings 2>
2

>  <Aromatic Atoms 2>
12

>  <sp3-Atoms>
0

>  <Amides 2>
0

>  <Amines 2>
0

>  <Aromatic Nitrogens 2>
0

>  <Basic Nitrogens>
0

$$$$
2,3-Dichlorobiphenyl
Actelion Java MolfileCreator 2.0

  0  0  0  0  0  0              0 V3000
M  V30 BEGIN CTAB
M  V30 COUNTS 14 15 0 0 0
M  V30 BEGIN ATOM
M  V30 1 Cl 0.0 0.0 0.0 0
M  V30 2 C -1.315 -0.7345 0.0 0
M  V30 3 C -2.63 0.0236 0.0 0
M  V30 4 C -1.3268 -2.2272 0.0 0
M  V30 5 Cl -2.6419 1.5401 0.0 0
M  V30 6 C -3.945 -0.7108 0.0 0
M  V30 7 C -0.0355 -2.9736 0.0 0
M  V30 8 C -2.6419 -2.9617 0.0 0
M  V30 9 C -3.9569 -2.2035 0.0 0
M  V30 10 C -0.0473 -4.4663 0.0 0
M  V30 11 C 1.2557 -2.2154 0.0 0
M  V30 12 C 1.2439 -5.2008 0.0 0
M  V30 13 C 2.5471 -2.9499 0.0 0
M  V30 14 C 2.5352 -4.4426 0.0 0
M  V30 END ATOM
M  V30 BEGIN BOND
M  V30 1 1 1 2
M  V30 2 2 2 3
M  V30 3 1 2 4
M  V30 4 1 3 5
M  V30 5 1 3 6
M  V30 6 1 4 7
M  V30 7 2 4 8
M  V30 8 2 6 9
M  V30 9 2 7 10
M  V30 10 1 7 11
M  V30 11 1 10 12
M  V30 12 2 11 13
M  V30 13 2 12 14
M  V30 14 1 8 9
M  V30 15 1 13 14
M  V30 END BOND
M  V30 END CTAB
M  END
>  <Molecule Name>
2,3-Dichlorobiphenyl

>  <Order (spectra)>
219

>  <NAME>
2,3-Dichlorobiphenyl

>  <Molecular Formula>
C12H8Cl2

>  <Monoisotopic Mass>
222.000304

>  <SMILES>
ClC1=CC=CC(=C1Cl)C1=CC=CC=C1

>  <InChI>
InChI=1S/C12H8Cl2/c13-11-8-4-7-10(12(11)14)9-5-2-1-3-6-9/h1-8H

>  <InChIKey>
XOMKZKJEJBZBJJ-UHFFFAOYSA-N

>  <Kingdom>
Organic compounds

>  <Superclass>
Benzenoids

>  <Class>
Benzene and substituted derivatives

>  <Subclass>
Biphenyls and derivatives

>  <Parent Level 1>
Chlorinated biphenyls

>  <Parent Level 2>
Polychlorinated biphenyls

>  <Parent Level 3>


>  <cLogP>
4.5308

>  <cLogS>
-5.174

>  <Druglikeness>
-1.9661

>  <NP-class probability>
0.01

>  <SmilesFragFp 3>


>  <MS_READY_SMILES>
ClC1=CC=CC(=C1Cl)C1=CC=CC=C1

>  <MS_READY_InChI>
InChI=1S/C12H8Cl2/c13-11-8-4-7-10(12(11)14)9-5-2-1-3-6-9/h1-8H

>  <QSAR_READY_SMILES>
ClC1=CC=CC(=C1Cl)C1=CC=CC=C1

>  <QSAR_READY_InChI>
InChI=1S/C12H8Cl2/c13-11-8-4-7-10(12(11)14)9-5-2-1-3-6-9/h1-8H

>  <DTXSID>
DTXSID0073409

>  <DTXCID>
DTXCID4035332

>  <CASRN>
16605-91-7

>  <EXPOCAST_MEDIAN_EXPOSURE_PREDICTION_MG/KG-BW/DAY>
1.01E-11

>  <BIOCONCENTRATION_FACTOR_TEST_PRED>
4623.81

>  <BOILING_POINT_DEGC_TEST_PRED>
299.241

>  <48HR_DAPHNIA_LC50_MOL/L_TEST_PRED>
1.09E-06

>  <DENSITY_G/CM^3_TEST_PRED>
1.252

>  <DEVTOX_TEST_PRED>
0.273

>  <96HR_FATHEAD_MINNOW_MOL/L_TEST_PRED>
2.75E-06

>  <FLASH_POINT_DEGC_TEST_PRED>
135.387

>  <MELTING_POINT_DEGC_TEST_PRED>
46.806

>  <AMES_MUTAGENICITY_TEST_PRED>
0.041

>  <ORAL_RAT_LD50_MOL/KG_TEST_PRED>
0.0097499

>  <SURFACE_TENSION_DYN/CM_TEST_PRED>
44.005

>  <THERMAL_CONDUCTIVITY_MW/(M*K)_TEST_PRED>
127.402

>  <TETRAHYMENA_PYRIFORMIS_IGC50_MOL/L_TEST_PRED>
1.76E-05

>  <VISCOSITY_CP_CP_TEST_PRED>
-

>  <VAPOR_PRESSURE_MMHG_TEST_PRED>
0.00196789

>  <WATER_SOLUBILITY_MOL/L_TEST_PRED>
3.02E-06

>  <ATMOSPHERIC_HYDROXYLATION_RATE_(AOH)_CM3/MOLECULE*SEC_OPERA_PRED>
2.93E-12

>  <BIOCONCENTRATION_FACTOR_OPERA_PRED>
9526.83

>  <BIODEGRADATION_HALF_LIFE_DAYS_DAYS_OPERA_PRED>
15.7921

>  <BOILING_POINT_DEGC_OPERA_PRED>
312.844

>  <HENRYS_LAW_ATM-M3/MOLE_OPERA_PRED>
0.0002295

>  <OPERA_KM_DAYS_OPERA_PRED>
141.351

>  <OCTANOL_AIR_PARTITION_COEFF_LOGKOA_OPERA_PRED>
7.44596

>  <SOIL_ADSORPTION_COEFFICIENT_KOC_L/KG_OPERA_PRED>
11103.7

>  <OCTANOL_WATER_PARTITION_LOGP_OPERA_PRED>
5.02114

>  <MELTING_POINT_DEGC_OPERA_PRED>
85.6883

>  <VAPOR_PRESSURE_MMHG_OPERA_PRED>
0.00143292

>  <WATER_SOLUBILITY_MOL/L_OPERA_PRED>
4.59E-06

>  <Shape Index>
0.57143

>  <Molecular Flexibility>
0.36944

>  <Molecular Complexity>
0.64751

>  <Electronegative Atoms>
2

>  <Stereo Centers>
0

>  <Rotatable Bonds>
1

>  <Rings Closures>
2

>  <Aromatic Rings>
2

>  <Aromatic Atoms>
12

>  <Amides>
0

>  <Amines>
0

>  <Aromatic Nitrogens>
0

>  <Shape Index 2>
0.57143

>  <Molecular Flexibility 2>
0.36944

>  <Molecular Complexity 2>
0.64751

>  <Non-C/H Atoms>
2

>  <Electronegative Atoms 2>
2

>  <Stereo Centers 2>
0

>  <Rotatable Bonds 2>
1

>  <Rings Closures 2>
2

>  <Aromatic Rings 2>
2

>  <Aromatic Atoms 2>
12

>  <sp3-Atoms>
0

>  <Amides 2>
0

>  <Amines 2>
0

>  <Aromatic Nitrogens 2>
0

>  <Basic Nitrogens>
0

$$$$
2,2',5-Trichlorobiphenyl
Actelion Java MolfileCreator 2.0

  0  0  0  0  0  0              0 V3000
M  V30 BEGIN CTAB
M  V30 COUNTS 15 16 0 0 0
M  V30 BEGIN ATOM
M  V30 1 Cl 0.0 0.0 0.0 0
M  V30 2 C -1.3079 -0.7305 0.0 0
M  V30 3 C -2.6158 0.0235 0.0 0
M  V30 4 C -1.3197 -2.2152 0.0 0
M  V30 5 C -2.6276 1.5318 0.0 0
M  V30 6 C -3.9237 -0.7069 0.0 0
M  V30 7 C -2.6276 -2.9457 0.0 0
M  V30 8 C -1.3432 2.2859 0.0 0
M  V30 9 C -3.9355 2.2859 0.0 0
M  V30 10 C -3.9355 -2.1916 0.0 0
M  V30 11 Cl -0.0589 1.5435 0.0 0
M  V30 12 C -1.355 3.7941 0.0 0
M  V30 13 C -3.9473 3.7941 0.0 0
M  V30 14 Cl -5.2434 -2.9222 0.0 0
M  V30 15 C -2.6629 4.56 0.0 0
M  V30 END ATOM
M  V30 BEGIN BOND
M  V30 1 1 1 2
M  V30 2 2 2 3
M  V30 3 1 2 4
M  V30 4 1 3 5
M  V30 5 1 3 6
M  V30 6 2 4 7
M  V30 7 2 5 8
M  V30 8 1 5 9
M  V30 9 2 6 10
M  V30 10 1 8 11
M  V30 11 1 8 12
M  V30 12 2 9 13
M  V30 13 1 10 14
M  V30 14 2 12 15
M  V30 15 1 7 10
M  V30 16 1 13 15
M  V30 END BOND
M  V30 END CTAB
M  END
>  <Molecule Name>
2,2',5-Trichlorobiphenyl

>  <Order (spectra)>
220

>  <NAME>
2,2',5-Trichlorobiphenyl

>  <Molecular Formula>
C12H7Cl3

>  <Monoisotopic Mass>
255.961331

>  <SMILES>
ClC1=CC(=C(Cl)C=C1)C1=C(Cl)C=CC=C1

>  <InChI>
InChI=1S/C12H7Cl3/c13-8-5-6-12(15)10(7-8)9-3-1-2-4-11(9)14/h1-7H

>  <InChIKey>
DCMURXAZTZQAFB-UHFFFAOYSA-N

>  <Kingdom>
Organic compounds

>  <Superclass>
Benzenoids

>  <Class>
Benzene and substituted derivatives

>  <Subclass>
Biphenyls and derivatives

>  <Parent Level 1>
Chlorinated biphenyls

>  <Parent Level 2>
Polychlorinated biphenyls

>  <Parent Level 3>


>  <cLogP>
5.1368

>  <cLogS>
-5.91

>  <Druglikeness>
-1.9661

>  <NP-class probability>
0.01

>  <SmilesFragFp 3>


>  <MS_READY_SMILES>
ClC1=CC(=C(Cl)C=C1)C1=C(Cl)C=CC=C1

>  <MS_READY_InChI>
InChI=1S/C12H7Cl3/c13-8-5-6-12(15)10(7-8)9-3-1-2-4-11(9)14/h1-7H

>  <QSAR_READY_SMILES>
ClC1=CC(=C(Cl)C=C1)C1=C(Cl)C=CC=C1

>  <QSAR_READY_InChI>
InChI=1S/C12H7Cl3/c13-8-5-6-12(15)10(7-8)9-3-1-2-4-11(9)14/h1-7H

>  <DTXSID>
DTXSID6073491

>  <DTXCID>
DTXCID7039383

>  <CASRN>
37680-65-2

>  <EXPOCAST_MEDIAN_EXPOSURE_PREDICTION_MG/KG-BW/DAY>
5.72E-12

>  <BIOCONCENTRATION_FACTOR_TEST_PRED>
9225.71

>  <BOILING_POINT_DEGC_TEST_PRED>
313.711

>  <48HR_DAPHNIA_LC50_MOL/L_TEST_PRED>
3.14E-07

>  <DENSITY_G/CM^3_TEST_PRED>
1.326

>  <DEVTOX_TEST_PRED>
0.286

>  <96HR_FATHEAD_MINNOW_MOL/L_TEST_PRED>
1.12E-06

>  <FLASH_POINT_DEGC_TEST_PRED>
145.886

>  <MELTING_POINT_DEGC_TEST_PRED>
81.232

>  <AMES_MUTAGENICITY_TEST_PRED>
0.284

>  <ORAL_RAT_LD50_MOL/KG_TEST_PRED>
0.000396278

>  <SURFACE_TENSION_DYN/CM_TEST_PRED>
-

>  <THERMAL_CONDUCTIVITY_MW/(M*K)_TEST_PRED>
124.214

>  <TETRAHYMENA_PYRIFORMIS_IGC50_MOL/L_TEST_PRED>
2.48E-06

>  <VISCOSITY_CP_CP_TEST_PRED>
-

>  <VAPOR_PRESSURE_MMHG_TEST_PRED>
0.000234423

>  <WATER_SOLUBILITY_MOL/L_TEST_PRED>
8.91E-07

>  <ATMOSPHERIC_HYDROXYLATION_RATE_(AOH)_CM3/MOLECULE*SEC_OPERA_PRED>
1.12E-12

>  <BIOCONCENTRATION_FACTOR_OPERA_PRED>
16981.2

>  <BIODEGRADATION_HALF_LIFE_DAYS_DAYS_OPERA_PRED>
18.1849

>  <BOILING_POINT_DEGC_OPERA_PRED>
343.248

>  <HENRYS_LAW_ATM-M3/MOLE_OPERA_PRED>
0.000248754

>  <OPERA_KM_DAYS_OPERA_PRED>
74.3092

>  <OCTANOL_AIR_PARTITION_COEFF_LOGKOA_OPERA_PRED>
7.77712

>  <SOIL_ADSORPTION_COEFFICIENT_KOC_L/KG_OPERA_PRED>
25191

>  <OCTANOL_WATER_PARTITION_LOGP_OPERA_PRED>
5.52432

>  <MELTING_POINT_DEGC_OPERA_PRED>
83.8857

>  <VAPOR_PRESSURE_MMHG_OPERA_PRED>
0.00102155

>  <WATER_SOLUBILITY_MOL/L_OPERA_PRED>
1.05E-06

>  <Shape Index>
0.53333

>  <Molecular Flexibility>
0.33855

>  <Molecular Complexity>
0.68745

>  <Electronegative Atoms>
3

>  <Stereo Centers>
0

>  <Rotatable Bonds>
1

>  <Rings Closures>
2

>  <Aromatic Rings>
2

>  <Aromatic Atoms>
12

>  <Amides>
0

>  <Amines>
0

>  <Aromatic Nitrogens>
0

>  <Shape Index 2>
0.53333

>  <Molecular Flexibility 2>
0.33855

>  <Molecular Complexity 2>
0.68745

>  <Non-C/H Atoms>
3

>  <Electronegative Atoms 2>
3

>  <Stereo Centers 2>
0

>  <Rotatable Bonds 2>
1

>  <Rings Closures 2>
2

>  <Aromatic Rings 2>
2

>  <Aromatic Atoms 2>
12

>  <sp3-Atoms>
0

>  <Amides 2>
0

>  <Amines 2>
0

>  <Aromatic Nitrogens 2>
0

>  <Basic Nitrogens>
0

$$$$
2,4',5-Trichlorobiphenyl
Actelion Java MolfileCreator 2.0

  0  0  0  0  0  0              0 V3000
M  V30 BEGIN CTAB
M  V30 COUNTS 15 16 0 0 0
M  V30 BEGIN ATOM
M  V30 1 Cl 0.0 0.0 0.0 0
M  V30 2 C -1.3065 -0.7297 0.0 0
M  V30 3 C -2.6131 0.0235 0.0 0
M  V30 4 C -1.3183 -2.2129 0.0 0
M  V30 5 C -2.6249 1.5302 0.0 0
M  V30 6 C -3.9197 -0.7062 0.0 0
M  V30 7 C -2.6249 -2.9427 0.0 0
M  V30 8 C -1.3418 2.2835 0.0 0
M  V30 9 C -3.9314 2.2835 0.0 0
M  V30 10 C -3.9314 -2.1893 0.0 0
M  V30 11 C -1.3536 3.7902 0.0 0
M  V30 12 C -3.9432 3.7902 0.0 0
M  V30 13 Cl -5.238 -2.9191 0.0 0
M  V30 14 C -2.6602 4.5553 0.0 0
M  V30 15 Cl -2.672 6.062 0.0 0
M  V30 END ATOM
M  V30 BEGIN BOND
M  V30 1 1 1 2
M  V30 2 2 2 3
M  V30 3 1 2 4
M  V30 4 1 3 5
M  V30 5 1 3 6
M  V30 6 2 4 7
M  V30 7 2 5 8
M  V30 8 1 5 9
M  V30 9 2 6 10
M  V30 10 1 8 11
M  V30 11 2 9 12
M  V30 12 1 10 13
M  V30 13 2 11 14
M  V30 14 1 14 15
M  V30 15 1 7 10
M  V30 16 1 12 14
M  V30 END BOND
M  V30 END CTAB
M  END
>  <Molecule Name>
2,4',5-Trichlorobiphenyl

>  <Order (spectra)>
221

>  <NAME>
2,4',5-Trichlorobiphenyl

>  <Molecular Formula>
C12H7Cl3

>  <Monoisotopic Mass>
255.961331

>  <SMILES>
ClC1=CC=C(C=C1)C1=C(Cl)C=CC(Cl)=C1

>  <InChI>
InChI=1S/C12H7Cl3/c13-9-3-1-8(2-4-9)11-7-10(14)5-6-12(11)15/h1-7H

>  <InChIKey>
VAHKBZSAUKPEOV-UHFFFAOYSA-N

>  <Kingdom>
Organic compounds

>  <Superclass>
Benzenoids

>  <Class>
Benzene and substituted derivatives

>  <Subclass>
Biphenyls and derivatives

>  <Parent Level 1>
Chlorinated biphenyls

>  <Parent Level 2>
Polychlorinated biphenyls

>  <Parent Level 3>


>  <cLogP>
5.1368

>  <cLogS>
-5.91

>  <Druglikeness>
-1.9661

>  <NP-class probability>
0.01

>  <SmilesFragFp 3>


>  <MS_READY_SMILES>
ClC1=CC=C(C=C1)C1=C(Cl)C=CC(Cl)=C1

>  <MS_READY_InChI>
InChI=1S/C12H7Cl3/c13-9-3-1-8(2-4-9)11-7-10(14)5-6-12(11)15/h1-7H

>  <QSAR_READY_SMILES>
ClC1=CC=C(C=C1)C1=C(Cl)C=CC(Cl)=C1

>  <QSAR_READY_InChI>
InChI=1S/C12H7Cl3/c13-9-3-1-8(2-4-9)11-7-10(14)5-6-12(11)15/h1-7H

>  <DTXSID>
DTXSID9073410

>  <DTXCID>
DTXCID9035333

>  <CASRN>
16606-02-3

>  <EXPOCAST_MEDIAN_EXPOSURE_PREDICTION_MG/KG-BW/DAY>
7.77E-12

>  <BIOCONCENTRATION_FACTOR_TEST_PRED>
11324

>  <BOILING_POINT_DEGC_TEST_PRED>
316.309

>  <48HR_DAPHNIA_LC50_MOL/L_TEST_PRED>
9.06E-08

>  <DENSITY_G/CM^3_TEST_PRED>
1.357

>  <DEVTOX_TEST_PRED>
0.326

>  <96HR_FATHEAD_MINNOW_MOL/L_TEST_PRED>
8.17E-07

>  <FLASH_POINT_DEGC_TEST_PRED>
154.063

>  <MELTING_POINT_DEGC_TEST_PRED>
82.7

>  <AMES_MUTAGENICITY_TEST_PRED>
0.083

>  <ORAL_RAT_LD50_MOL/KG_TEST_PRED>
0.00240991

>  <SURFACE_TENSION_DYN/CM_TEST_PRED>
-

>  <THERMAL_CONDUCTIVITY_MW/(M*K)_TEST_PRED>
125.94

>  <TETRAHYMENA_PYRIFORMIS_IGC50_MOL/L_TEST_PRED>
2.09E-06

>  <VISCOSITY_CP_CP_TEST_PRED>
-

>  <VAPOR_PRESSURE_MMHG_TEST_PRED>
0.000103276

>  <WATER_SOLUBILITY_MOL/L_TEST_PRED>
5.04E-07

>  <ATMOSPHERIC_HYDROXYLATION_RATE_(AOH)_CM3/MOLECULE*SEC_OPERA_PRED>
1.19E-12

>  <BIOCONCENTRATION_FACTOR_OPERA_PRED>
13520.1

>  <BIODEGRADATION_HALF_LIFE_DAYS_DAYS_OPERA_PRED>
18.9079

>  <BOILING_POINT_DEGC_OPERA_PRED>
343.248

>  <HENRYS_LAW_ATM-M3/MOLE_OPERA_PRED>
0.000190146

>  <OPERA_KM_DAYS_OPERA_PRED>
81.5611

>  <OCTANOL_AIR_PARTITION_COEFF_LOGKOA_OPERA_PRED>
7.77712

>  <SOIL_ADSORPTION_COEFFICIENT_KOC_L/KG_OPERA_PRED>
48879.5

>  <OCTANOL_WATER_PARTITION_LOGP_OPERA_PRED>
5.73881

>  <MELTING_POINT_DEGC_OPERA_PRED>
83.9558

>  <VAPOR_PRESSURE_MMHG_OPERA_PRED>
0.000167353

>  <WATER_SOLUBILITY_MOL/L_OPERA_PRED>
5.74E-07

>  <Shape Index>
0.6

>  <Molecular Flexibility>
0.38377

>  <Molecular Complexity>
0.65788

>  <Electronegative Atoms>
3

>  <Stereo Centers>
0

>  <Rotatable Bonds>
1

>  <Rings Closures>
2

>  <Aromatic Rings>
2

>  <Aromatic Atoms>
12

>  <Amides>
0

>  <Amines>
0

>  <Aromatic Nitrogens>
0

>  <Shape Index 2>
0.6

>  <Molecular Flexibility 2>
0.38377

>  <Molecular Complexity 2>
0.65788

>  <Non-C/H Atoms>
3

>  <Electronegative Atoms 2>
3

>  <Stereo Centers 2>
0

>  <Rotatable Bonds 2>
1

>  <Rings Closures 2>
2

>  <Aromatic Rings 2>
2

>  <Aromatic Atoms 2>
12

>  <sp3-Atoms>
0

>  <Amides 2>
0

>  <Amines 2>
0

>  <Aromatic Nitrogens 2>
0

>  <Basic Nitrogens>
0

$$$$
2,2',3,5'-Tetrachlorobiphenyl
Actelion Java MolfileCreator 2.0

  0  0  0  0  0  0              0 V3000
M  V30 BEGIN CTAB
M  V30 COUNTS 16 17 0 0 0
M  V30 BEGIN ATOM
M  V30 1 Cl 0.0 0.0 0.0 0
M  V30 2 C -1.3151 -0.7345 0.0 0
M  V30 3 C -2.6302 0.0236 0.0 0
M  V30 4 C -1.3269 -2.2274 0.0 0
M  V30 5 Cl -2.6421 1.5402 0.0 0
M  V30 6 C -3.9454 -0.7108 0.0 0
M  V30 7 C -0.0355 -2.962 0.0 0
M  V30 8 C -2.6421 -2.962 0.0 0
M  V30 9 C -3.9572 -2.2037 0.0 0
M  V30 10 C -0.0473 -4.4548 0.0 0
M  V30 11 C 1.2558 -2.2037 0.0 0
M  V30 12 Cl -1.3625 -5.1894 0.0 0
M  V30 13 C 1.244 -5.1894 0.0 0
M  V30 14 C 2.5473 -2.9383 0.0 0
M  V30 15 C 2.5354 -4.4311 0.0 0
M  V30 16 Cl 3.8387 -2.18 0.0 0
M  V30 END ATOM
M  V30 BEGIN BOND
M  V30 1 1 1 2
M  V30 2 2 2 3
M  V30 3 1 2 4
M  V30 4 1 3 5
M  V30 5 1 3 6
M  V30 6 1 4 7
M  V30 7 2 4 8
M  V30 8 2 6 9
M  V30 9 2 7 10
M  V30 10 1 7 11
M  V30 11 1 10 12
M  V30 12 1 10 13
M  V30 13 2 11 14
M  V30 14 2 13 15
M  V30 15 1 14 16
M  V30 16 1 8 9
M  V30 17 1 14 15
M  V30 END BOND
M  V30 END CTAB
M  END
>  <Molecule Name>
2,2',3,5'-Tetrachlorobiphenyl

>  <Order (spectra)>
222

>  <NAME>
2,2',3,5'-Tetrachlorobiphenyl

>  <Molecular Formula>
C12H6Cl4

>  <Monoisotopic Mass>
289.922358

>  <SMILES>
ClC1=CC(=C(Cl)C=C1)C1=C(Cl)C(Cl)=CC=C1

>  <InChI>
InChI=1S/C12H6Cl4/c13-7-4-5-10(14)9(6-7)8-2-1-3-11(15)12(8)16/h1-6H

>  <InChIKey>
ALDJIKXAHSDLLB-UHFFFAOYSA-N

>  <Kingdom>
Organic compounds

>  <Superclass>
Benzenoids

>  <Class>
Benzene and substituted derivatives

>  <Subclass>
Biphenyls and derivatives

>  <Parent Level 1>
Chlorinated biphenyls

>  <Parent Level 2>
Polychlorinated biphenyls

>  <Parent Level 3>


>  <cLogP>
5.7428

>  <cLogS>
-6.646

>  <Druglikeness>
-1.9661

>  <NP-class probability>
0.01

>  <SmilesFragFp 3>


>  <MS_READY_SMILES>
ClC1=CC(=C(Cl)C=C1)C1=C(Cl)C(Cl)=CC=C1

>  <MS_READY_InChI>
InChI=1S/C12H6Cl4/c13-7-4-5-10(14)9(6-7)8-2-1-3-11(15)12(8)16/h1-6H

>  <QSAR_READY_SMILES>
ClC1=CC(=C(Cl)C=C1)C1=C(Cl)C(Cl)=CC=C1

>  <QSAR_READY_InChI>
InChI=1S/C12H6Cl4/c13-7-4-5-10(14)9(6-7)8-2-1-3-11(15)12(8)16/h1-6H

>  <DTXSID>
DTXSID8038302

>  <DTXCID>
DTXCID6018302

>  <CASRN>
41464-39-5

>  <EXPOCAST_MEDIAN_EXPOSURE_PREDICTION_MG/KG-BW/DAY>
8.07E-14

>  <BIOCONCENTRATION_FACTOR_TEST_PRED>
20230.2

>  <BOILING_POINT_DEGC_TEST_PRED>
328.007

>  <48HR_DAPHNIA_LC50_MOL/L_TEST_PRED>
1.21E-07

>  <DENSITY_G/CM^3_TEST_PRED>
1.412

>  <DEVTOX_TEST_PRED>
0.326

>  <96HR_FATHEAD_MINNOW_MOL/L_TEST_PRED>
2.90E-07

>  <FLASH_POINT_DEGC_TEST_PRED>
161.965

>  <MELTING_POINT_DEGC_TEST_PRED>
94.111

>  <AMES_MUTAGENICITY_TEST_PRED>
-0.052

>  <ORAL_RAT_LD50_MOL/KG_TEST_PRED>
0.00053827

>  <SURFACE_TENSION_DYN/CM_TEST_PRED>
-

>  <THERMAL_CONDUCTIVITY_MW/(M*K)_TEST_PRED>
122.58

>  <TETRAHYMENA_PYRIFORMIS_IGC50_MOL/L_TEST_PRED>
7.64E-07

>  <VISCOSITY_CP_CP_TEST_PRED>
-

>  <VAPOR_PRESSURE_MMHG_TEST_PRED>
4.55E-05

>  <WATER_SOLUBILITY_MOL/L_TEST_PRED>
1.39E-07

>  <ATMOSPHERIC_HYDROXYLATION_RATE_(AOH)_CM3/MOLECULE*SEC_OPERA_PRED>
8.01E-13

>  <BIOCONCENTRATION_FACTOR_OPERA_PRED>
64208.6

>  <BIODEGRADATION_HALF_LIFE_DAYS_DAYS_OPERA_PRED>
15.7567

>  <BOILING_POINT_DEGC_OPERA_PRED>
369.11

>  <HENRYS_LAW_ATM-M3/MOLE_OPERA_PRED>
0.000139576

>  <OPERA_KM_DAYS_OPERA_PRED>
218.12

>  <OCTANOL_AIR_PARTITION_COEFF_LOGKOA_OPERA_PRED>
8.40057

>  <SOIL_ADSORPTION_COEFFICIENT_KOC_L/KG_OPERA_PRED>
99563.6

>  <OCTANOL_WATER_PARTITION_LOGP_OPERA_PRED>
5.91268

>  <MELTING_POINT_DEGC_OPERA_PRED>
107.052

>  <VAPOR_PRESSURE_MMHG_OPERA_PRED>
2.89E-05

>  <WATER_SOLUBILITY_MOL/L_OPERA_PRED>
1.71E-07

>  <Shape Index>
0.5

>  <Molecular Flexibility>
0.34898

>  <Molecular Complexity>
0.74106

>  <Electronegative Atoms>
4

>  <Stereo Centers>
0

>  <Rotatable Bonds>
1

>  <Rings Closures>
2

>  <Aromatic Rings>
2

>  <Aromatic Atoms>
12

>  <Amides>
0

>  <Amines>
0

>  <Aromatic Nitrogens>
0

>  <Shape Index 2>
0.5

>  <Molecular Flexibility 2>
0.34898

>  <Molecular Complexity 2>
0.74106

>  <Non-C/H Atoms>
4

>  <Electronegative Atoms 2>
4

>  <Stereo Centers 2>
0

>  <Rotatable Bonds 2>
1

>  <Rings Closures 2>
2

>  <Aromatic Rings 2>
2

>  <Aromatic Atoms 2>
12

>  <sp3-Atoms>
0

>  <Amides 2>
0

>  <Amines 2>
0

>  <Aromatic Nitrogens 2>
0

>  <Basic Nitrogens>
0

$$$$
2,3',4,4'-Tetrachlorobiphenyl
Actelion Java MolfileCreator 2.0

  0  0  0  0  0  0              0 V3000
M  V30 BEGIN CTAB
M  V30 COUNTS 16 17 0 0 0
M  V30 BEGIN ATOM
M  V30 1 Cl 0.0 0.0 0.0 0
M  V30 2 C -1.3135 -0.7336 0.0 0
M  V30 3 C -2.627 0.0236 0.0 0
M  V30 4 C -1.3253 -2.2246 0.0 0
M  V30 5 Cl -2.6388 1.5383 0.0 0
M  V30 6 C -3.9405 -0.71 0.0 0
M  V30 7 C -2.6388 -2.9583 0.0 0
M  V30 8 C -3.9523 -2.201 0.0 0
M  V30 9 C -2.6506 -4.4493 0.0 0
M  V30 10 C -3.9641 -5.183 0.0 0
M  V30 11 C -1.3608 -5.183 0.0 0
M  V30 12 Cl -5.2776 -4.4256 0.0 0
M  V30 13 C -3.976 -6.674 0.0 0
M  V30 14 C -1.3726 -6.674 0.0 0
M  V30 15 C -2.6861 -7.4076 0.0 0
M  V30 16 Cl -2.698 -8.8987 0.0 0
M  V30 END ATOM
M  V30 BEGIN BOND
M  V30 1 1 1 2
M  V30 2 2 2 3
M  V30 3 1 2 4
M  V30 4 1 3 5
M  V30 5 1 3 6
M  V30 6 2 4 7
M  V30 7 2 6 8
M  V30 8 1 7 9
M  V30 9 2 9 10
M  V30 10 1 9 11
M  V30 11 1 10 12
M  V30 12 1 10 13
M  V30 13 2 11 14
M  V30 14 2 13 15
M  V30 15 1 15 16
M  V30 16 1 7 8
M  V30 17 1 14 15
M  V30 END BOND
M  V30 END CTAB
M  END
>  <Molecule Name>
2,3',4,4'-Tetrachlorobiphenyl

>  <Order (spectra)>
223

>  <NAME>
2,3',4,4'-Tetrachlorobiphenyl

>  <Molecular Formula>
C12H6Cl4

>  <Monoisotopic Mass>
289.922358

>  <SMILES>
ClC1=CC(Cl)=C(C=C1)C1=CC(Cl)=C(Cl)C=C1

>  <InChI>
InChI=1S/C12H6Cl4/c13-8-2-3-9(11(15)6-8)7-1-4-10(14)12(16)5-7/h1-6H

>  <InChIKey>
RKLLTEAEZIJBAU-UHFFFAOYSA-N

>  <Kingdom>
Organic compounds

>  <Superclass>
Benzenoids

>  <Class>
Benzene and substituted derivatives

>  <Subclass>
Biphenyls and derivatives

>  <Parent Level 1>
Chlorinated biphenyls

>  <Parent Level 2>
Polychlorinated biphenyls

>  <Parent Level 3>


>  <cLogP>
5.7428

>  <cLogS>
-6.646

>  <Druglikeness>
-1.9661

>  <NP-class probability>
0.01

>  <SmilesFragFp 3>


>  <MS_READY_SMILES>
ClC1=CC(Cl)=C(C=C1)C1=CC(Cl)=C(Cl)C=C1

>  <MS_READY_InChI>
InChI=1S/C12H6Cl4/c13-8-2-3-9(11(15)6-8)7-1-4-10(14)12(16)5-7/h1-6H

>  <QSAR_READY_SMILES>
ClC1=CC(Cl)=C(C=C1)C1=CC(Cl)=C(Cl)C=C1

>  <QSAR_READY_InChI>
InChI=1S/C12H6Cl4/c13-8-2-3-9(11(15)6-8)7-1-4-10(14)12(16)5-7/h1-6H

>  <DTXSID>
DTXSID3073472

>  <DTXCID>
DTXCID1038537

>  <CASRN>
32598-10-0

>  <EXPOCAST_MEDIAN_EXPOSURE_PREDICTION_MG/KG-BW/DAY>
9.29E-15

>  <BIOCONCENTRATION_FACTOR_TEST_PRED>
19724.2

>  <BOILING_POINT_DEGC_TEST_PRED>
342.508

>  <48HR_DAPHNIA_LC50_MOL/L_TEST_PRED>
4.02E-08

>  <DENSITY_G/CM^3_TEST_PRED>
1.438

>  <DEVTOX_TEST_PRED>
0.399

>  <96HR_FATHEAD_MINNOW_MOL/L_TEST_PRED>
2.81E-07

>  <FLASH_POINT_DEGC_TEST_PRED>
162.209

>  <MELTING_POINT_DEGC_TEST_PRED>
95.845

>  <AMES_MUTAGENICITY_TEST_PRED>
-0.08

>  <ORAL_RAT_LD50_MOL/KG_TEST_PRED>
0.000939723

>  <SURFACE_TENSION_DYN/CM_TEST_PRED>
-

>  <THERMAL_CONDUCTIVITY_MW/(M*K)_TEST_PRED>
124.1

>  <TETRAHYMENA_PYRIFORMIS_IGC50_MOL/L_TEST_PRED>
7.19E-07

>  <VISCOSITY_CP_CP_TEST_PRED>
-

>  <VAPOR_PRESSURE_MMHG_TEST_PRED>
2.69E-05

>  <WATER_SOLUBILITY_MOL/L_TEST_PRED>
1.08E-07

>  <ATMOSPHERIC_HYDROXYLATION_RATE_(AOH)_CM3/MOLECULE*SEC_OPERA_PRED>
9.12E-13

>  <BIOCONCENTRATION_FACTOR_OPERA_PRED>
31072.4

>  <BIODEGRADATION_HALF_LIFE_DAYS_DAYS_OPERA_PRED>
15.8537

>  <BOILING_POINT_DEGC_OPERA_PRED>
369.557

>  <HENRYS_LAW_ATM-M3/MOLE_OPERA_PRED>
0.000115333

>  <OPERA_KM_DAYS_OPERA_PRED>
119.571

>  <OCTANOL_AIR_PARTITION_COEFF_LOGKOA_OPERA_PRED>
8.71552

>  <SOIL_ADSORPTION_COEFFICIENT_KOC_L/KG_OPERA_PRED>
85052

>  <OCTANOL_WATER_PARTITION_LOGP_OPERA_PRED>
6.10901

>  <MELTING_POINT_DEGC_OPERA_PRED>
96.465

>  <VAPOR_PRESSURE_MMHG_OPERA_PRED>
4.53E-05

>  <WATER_SOLUBILITY_MOL/L_OPERA_PRED>
1.33E-07

>  <Shape Index>
0.625

>  <Molecular Flexibility>
0.39545

>  <Molecular Complexity>
0.71194

>  <Electronegative Atoms>
4

>  <Stereo Centers>
0

>  <Rotatable Bonds>
1

>  <Rings Closures>
2

>  <Aromatic Rings>
2

>  <Aromatic Atoms>
12

>  <Amides>
0

>  <Amines>
0

>  <Aromatic Nitrogens>
0

>  <Shape Index 2>
0.625

>  <Molecular Flexibility 2>
0.39545

>  <Molecular Complexity 2>
0.71194

>  <Non-C/H Atoms>
4

>  <Electronegative Atoms 2>
4

>  <Stereo Centers 2>
0

>  <Rotatable Bonds 2>
1

>  <Rings Closures 2>
2

>  <Aromatic Rings 2>
2

>  <Aromatic Atoms 2>
12

>  <sp3-Atoms>
0

>  <Amides 2>
0

>  <Amines 2>
0

>  <Aromatic Nitrogens 2>
0

>  <Basic Nitrogens>
0

$$$$
2,2',3,4',5,5',6-Heptachlorobiphenyl
Actelion Java MolfileCreator 2.0

  0  0  0  0  0  0              0 V3000
M  V30 BEGIN CTAB
M  V30 COUNTS 19 20 0 0 0
M  V30 BEGIN ATOM
M  V30 1 Cl 0.0 0.0 0.0 0
M  V30 2 C -1.3076 -0.7304 0.0 0
M  V30 3 C -2.6153 0.0235 0.0 0
M  V30 4 C -1.3194 -2.2148 0.0 0
M  V30 5 C -3.923 -0.7068 0.0 0
M  V30 6 C -2.6271 1.5315 0.0 0
M  V30 7 Cl -0.0353 -2.957 0.0 0
M  V30 8 C -2.6271 -2.9452 0.0 0
M  V30 9 Cl -5.2307 0.0471 0.0 0
M  V30 10 C -3.9348 -2.1912 0.0 0
M  V30 11 C -1.343 2.2855 0.0 0
M  V30 12 C -3.9348 2.2855 0.0 0
M  V30 13 Cl -5.2425 -2.9216 0.0 0
M  V30 14 Cl -0.0589 1.555 0.0 0
M  V30 15 C -1.3548 3.7934 0.0 0
M  V30 16 C -3.9466 3.7934 0.0 0
M  V30 17 C -2.6625 4.5592 0.0 0
M  V30 18 Cl -5.2543 4.5474 0.0 0
M  V30 19 Cl -2.6742 6.0672 0.0 0
M  V30 END ATOM
M  V30 BEGIN BOND
M  V30 1 1 1 2
M  V30 2 2 2 3
M  V30 3 1 2 4
M  V30 4 1 3 5
M  V30 5 1 3 6
M  V30 6 1 4 7
M  V30 7 2 4 8
M  V30 8 1 5 9
M  V30 9 2 5 10
M  V30 10 2 6 11
M  V30 11 1 6 12
M  V30 12 1 10 13
M  V30 13 1 11 14
M  V30 14 1 11 15
M  V30 15 2 12 16
M  V30 16 2 15 17
M  V30 17 1 16 18
M  V30 18 1 17 19
M  V30 19 1 8 10
M  V30 20 1 16 17
M  V30 END BOND
M  V30 END CTAB
M  END
>  <Molecule Name>
2,2',3,4',5,5',6-Heptachlorobiphenyl

>  <Order (spectra)>
224

>  <NAME>
2,2',3,4',5,5',6-Heptachlorobiphenyl

>  <Molecular Formula>
C12H3Cl7

>  <Monoisotopic Mass>
391.805439

>  <SMILES>
ClC1=CC(Cl)=C(C=C1Cl)C1=C(Cl)C(Cl)=CC(Cl)=C1Cl

>  <InChI>
InChI=1S/C12H3Cl7/c13-5-2-7(15)6(14)1-4(5)10-11(18)8(16)3-9(17)12(10)19/h1-3H

>  <InChIKey>
UDMZPLROONOSEF-UHFFFAOYSA-N

>  <Kingdom>
Organic compounds

>  <Superclass>
Benzenoids

>  <Class>
Benzene and substituted derivatives

>  <Subclass>
Biphenyls and derivatives

>  <Parent Level 1>
Chlorinated biphenyls

>  <Parent Level 2>
Polychlorinated biphenyls

>  <Parent Level 3>


>  <cLogP>
7.5608

>  <cLogS>
-8.854

>  <Druglikeness>
-1.9661

>  <NP-class probability>
0.01

>  <SmilesFragFp 3>


>  <MS_READY_SMILES>
ClC1=CC(Cl)=C(C=C1Cl)C1=C(Cl)C(Cl)=CC(Cl)=C1Cl

>  <MS_READY_InChI>
InChI=1S/C12H3Cl7/c13-5-2-7(15)6(14)1-4(5)10-11(18)8(16)3-9(17)12(10)19/h1-3H

>  <QSAR_READY_SMILES>
ClC1=CC(Cl)=C(C=C1Cl)C1=C(Cl)C(Cl)=CC(Cl)=C1Cl

>  <QSAR_READY_InChI>
InChI=1S/C12H3Cl7/c13-5-2-7(15)6(14)1-4(5)10-11(18)8(16)3-9(17)12(10)19/h1-3H

>  <DTXSID>
DTXSID5052832

>  <DTXCID>
DTXCID7031375

>  <CASRN>
52663-68-0

>  <EXPOCAST_MEDIAN_EXPOSURE_PREDICTION_MG/KG-BW/DAY>
4.92E-14

>  <BIOCONCENTRATION_FACTOR_TEST_PRED>
157036

>  <BOILING_POINT_DEGC_TEST_PRED>
427.054

>  <48HR_DAPHNIA_LC50_MOL/L_TEST_PRED>
4.58E-09

>  <DENSITY_G/CM^3_TEST_PRED>
1.754

>  <DEVTOX_TEST_PRED>
0.451

>  <96HR_FATHEAD_MINNOW_MOL/L_TEST_PRED>
4.84E-09

>  <FLASH_POINT_DEGC_TEST_PRED>
195.692

>  <MELTING_POINT_DEGC_TEST_PRED>
126.987

>  <AMES_MUTAGENICITY_TEST_PRED>
-0.01

>  <ORAL_RAT_LD50_MOL/KG_TEST_PRED>
3.77E-05

>  <SURFACE_TENSION_DYN/CM_TEST_PRED>
-

>  <THERMAL_CONDUCTIVITY_MW/(M*K)_TEST_PRED>
116.645

>  <TETRAHYMENA_PYRIFORMIS_IGC50_MOL/L_TEST_PRED>
2.96E-07

>  <VISCOSITY_CP_CP_TEST_PRED>
-

>  <VAPOR_PRESSURE_MMHG_TEST_PRED>
6.27E-07

>  <WATER_SOLUBILITY_MOL/L_TEST_PRED>
1.84E-09

>  <ATMOSPHERIC_HYDROXYLATION_RATE_(AOH)_CM3/MOLECULE*SEC_OPERA_PRED>
6.79E-13

>  <BIOCONCENTRATION_FACTOR_OPERA_PRED>
450051

>  <BIODEGRADATION_HALF_LIFE_DAYS_DAYS_OPERA_PRED>
20.1637

>  <BOILING_POINT_DEGC_OPERA_PRED>
424.376

>  <HENRYS_LAW_ATM-M3/MOLE_OPERA_PRED>
1.29E-05

>  <OPERA_KM_DAYS_OPERA_PRED>
282.23

>  <OCTANOL_AIR_PARTITION_COEFF_LOGKOA_OPERA_PRED>
9.94366

>  <SOIL_ADSORPTION_COEFFICIENT_KOC_L/KG_OPERA_PRED>
808391

>  <OCTANOL_WATER_PARTITION_LOGP_OPERA_PRED>
7.00498

>  <MELTING_POINT_DEGC_OPERA_PRED>
97.0157

>  <VAPOR_PRESSURE_MMHG_OPERA_PRED>
7.58E-07

>  <WATER_SOLUBILITY_MOL/L_OPERA_PRED>
3.36E-09

>  <Shape Index>
0.47368

>  <Molecular Flexibility>
0.32942

>  <Molecular Complexity>
0.81625

>  <Electronegative Atoms>
7

>  <Stereo Centers>
0

>  <Rotatable Bonds>
1

>  <Rings Closures>
2

>  <Aromatic Rings>
2

>  <Aromatic Atoms>
12

>  <Amides>
0

>  <Amines>
0

>  <Aromatic Nitrogens>
0

>  <Shape Index 2>
0.47368

>  <Molecular Flexibility 2>
0.32942

>  <Molecular Complexity 2>
0.81625

>  <Non-C/H Atoms>
7

>  <Electronegative Atoms 2>
7

>  <Stereo Centers 2>
0

>  <Rotatable Bonds 2>
1

>  <Rings Closures 2>
2

>  <Aromatic Rings 2>
2

>  <Aromatic Atoms 2>
12

>  <sp3-Atoms>
0

>  <Amides 2>
0

>  <Amines 2>
0

>  <Aromatic Nitrogens 2>
0

>  <Basic Nitrogens>
0

$$$$
2,2',3,4,4',5',6-Heptachlorobiphenyl
Actelion Java MolfileCreator 2.0

  0  0  0  0  0  0              0 V3000
M  V30 BEGIN CTAB
M  V30 COUNTS 19 20 0 0 0
M  V30 BEGIN ATOM
M  V30 1 Cl 0.0 0.0 0.0 0
M  V30 2 C -1.315 -0.7345 0.0 0
M  V30 3 C -2.63 0.0236 0.0 0
M  V30 4 C -1.3268 -2.2272 0.0 0
M  V30 5 Cl -2.6418 1.5401 0.0 0
M  V30 6 C -3.945 -0.7108 0.0 0
M  V30 7 C -2.6418 -2.9617 0.0 0
M  V30 8 C -0.0355 -2.9736 0.0 0
M  V30 9 Cl -5.26 0.0473 0.0 0
M  V30 10 C -3.9569 -2.2035 0.0 0
M  V30 11 Cl -2.6537 -4.4544 0.0 0
M  V30 12 C -0.0473 -4.4663 0.0 0
M  V30 13 C 1.2557 -2.2154 0.0 0
M  V30 14 Cl -1.3624 -5.2008 0.0 0
M  V30 15 C 1.2439 -5.2008 0.0 0
M  V30 16 C 2.5471 -2.9499 0.0 0
M  V30 17 C 2.5352 -4.4426 0.0 0
M  V30 18 Cl 3.8384 -2.1917 0.0 0
M  V30 19 Cl 3.8266 -5.1771 0.0 0
M  V30 END ATOM
M  V30 BEGIN BOND
M  V30 1 1 1 2
M  V30 2 2 2 3
M  V30 3 1 2 4
M  V30 4 1 3 5
M  V30 5 1 3 6
M  V30 6 2 4 7
M  V30 7 1 4 8
M  V30 8 1 6 9
M  V30 9 2 6 10
M  V30 10 1 7 11
M  V30 11 2 8 12
M  V30 12 1 8 13 CFG=1
M  V30 13 1 12 14
M  V30 14 1 12 15
M  V30 15 2 13 16
M  V30 16 2 15 17
M  V30 17 1 16 18
M  V30 18 1 17 19
M  V30 19 1 7 10
M  V30 20 1 16 17
M  V30 END BOND
M  V30 BEGIN COLLECTION
M  V30 MDLV30/STERAC1 BONDS=(1 7)
M  V30 END COLLECTION
M  V30 END CTAB
M  END
>  <Molecule Name>
2,2',3,4,4',5',6-Heptachlorobiphenyl

>  <Order (spectra)>
225

>  <NAME>
2,2',3,4,4',5',6-Heptachlorobiphenyl

>  <Molecular Formula>
C12H3Cl7

>  <Monoisotopic Mass>
391.805439

>  <SMILES>
ClC1=CC(Cl)=C(C=C1Cl)C1=C(Cl)C(Cl)=C(Cl)C=C1Cl

>  <InChI>
InChI=1S/C12H3Cl7/c13-5-2-7(15)6(14)1-4(5)10-8(16)3-9(17)11(18)12(10)19/h1-3H

>  <InChIKey>
KQBFUDNJKCZEDQ-UHFFFAOYSA-N

>  <Kingdom>
Organic compounds

>  <Superclass>
Benzenoids

>  <Class>
Benzene and substituted derivatives

>  <Subclass>
Biphenyls and derivatives

>  <Parent Level 1>
Chlorinated biphenyls

>  <Parent Level 2>
Polychlorinated biphenyls

>  <Parent Level 3>


>  <cLogP>
7.5608

>  <cLogS>
-8.854

>  <Druglikeness>
-1.9661

>  <NP-class probability>
0.01

>  <SmilesFragFp 3>


>  <MS_READY_SMILES>
ClC1=CC(Cl)=C(C=C1Cl)C1=C(Cl)C(Cl)=C(Cl)C=C1Cl

>  <MS_READY_InChI>
InChI=1S/C12H3Cl7/c13-5-2-7(15)6(14)1-4(5)10-8(16)3-9(17)11(18)12(10)19/h1-3H

>  <QSAR_READY_SMILES>
ClC1=CC(Cl)=C(C=C1Cl)C1=C(Cl)C(Cl)=C(Cl)C=C1Cl

>  <QSAR_READY_InChI>
InChI=1S/C12H3Cl7/c13-5-2-7(15)6(14)1-4(5)10-8(16)3-9(17)11(18)12(10)19/h1-3H

>  <DTXSID>
DTXSID7074163

>  <DTXCID>
DTXCID3041241

>  <CASRN>
52663-69-1

>  <EXPOCAST_MEDIAN_EXPOSURE_PREDICTION_MG/KG-BW/DAY>
4.84E-14

>  <BIOCONCENTRATION_FACTOR_TEST_PRED>
172187

>  <BOILING_POINT_DEGC_TEST_PRED>
422.025

>  <48HR_DAPHNIA_LC50_MOL/L_TEST_PRED>
4.69E-09

>  <DENSITY_G/CM^3_TEST_PRED>
1.74

>  <DEVTOX_TEST_PRED>
0.455

>  <96HR_FATHEAD_MINNOW_MOL/L_TEST_PRED>
5.01E-09

>  <FLASH_POINT_DEGC_TEST_PRED>
195.932

>  <MELTING_POINT_DEGC_TEST_PRED>
123.101

>  <AMES_MUTAGENICITY_TEST_PRED>
-0.012

>  <ORAL_RAT_LD50_MOL/KG_TEST_PRED>
9.33E-05

>  <SURFACE_TENSION_DYN/CM_TEST_PRED>
-

>  <THERMAL_CONDUCTIVITY_MW/(M*K)_TEST_PRED>
112.237

>  <TETRAHYMENA_PYRIFORMIS_IGC50_MOL/L_TEST_PRED>
2.96E-07

>  <VISCOSITY_CP_CP_TEST_PRED>
-

>  <VAPOR_PRESSURE_MMHG_TEST_PRED>
5.85E-07

>  <WATER_SOLUBILITY_MOL/L_TEST_PRED>
3.09E-09

>  <ATMOSPHERIC_HYDROXYLATION_RATE_(AOH)_CM3/MOLECULE*SEC_OPERA_PRED>
6.79E-13

>  <BIOCONCENTRATION_FACTOR_OPERA_PRED>
449950

>  <BIODEGRADATION_HALF_LIFE_DAYS_DAYS_OPERA_PRED>
20.0572

>  <BOILING_POINT_DEGC_OPERA_PRED>
403.963

>  <HENRYS_LAW_ATM-M3/MOLE_OPERA_PRED>
1.08E-05

>  <OPERA_KM_DAYS_OPERA_PRED>
387.119

>  <OCTANOL_AIR_PARTITION_COEFF_LOGKOA_OPERA_PRED>
10.3577

>  <SOIL_ADSORPTION_COEFFICIENT_KOC_L/KG_OPERA_PRED>
715105

>  <OCTANOL_WATER_PARTITION_LOGP_OPERA_PRED>
7.29797

>  <MELTING_POINT_DEGC_OPERA_PRED>
83.1265

>  <VAPOR_PRESSURE_MMHG_OPERA_PRED>
6.91E-07

>  <WATER_SOLUBILITY_MOL/L_OPERA_PRED>
6.19E-09

>  <Shape Index>
0.52632

>  <Molecular Flexibility>
0.32942

>  <Molecular Complexity>
0.82225

>  <Electronegative Atoms>
7

>  <Stereo Centers>
0

>  <Rotatable Bonds>
1

>  <Rings Closures>
2

>  <Aromatic Rings>
2

>  <Aromatic Atoms>
12

>  <Amides>
0

>  <Amines>
0

>  <Aromatic Nitrogens>
0

>  <Shape Index 2>
0.52632

>  <Molecular Flexibility 2>
0.32942

>  <Molecular Complexity 2>
0.82225

>  <Non-C/H Atoms>
7

>  <Electronegative Atoms 2>
7

>  <Stereo Centers 2>
0

>  <Rotatable Bonds 2>
1

>  <Rings Closures 2>
2

>  <Aromatic Rings 2>
2

>  <Aromatic Atoms 2>
12

>  <sp3-Atoms>
0

>  <Amides 2>
0

>  <Amines 2>
0

>  <Aromatic Nitrogens 2>
0

>  <Basic Nitrogens>
0

$$$$
2,2',3,3',4,4',5-Heptachlorobiphenyl
Actelion Java MolfileCreator 2.0

  0  0  0  0  0  0              0 V3000
M  V30 BEGIN CTAB
M  V30 COUNTS 19 20 0 0 0
M  V30 BEGIN ATOM
M  V30 1 Cl 0.0 0.0 0.0 0
M  V30 2 C -1.313 -0.7334 0.0 0
M  V30 3 C -2.626 0.0236 0.0 0
M  V30 4 C -1.3248 -2.2238 0.0 0
M  V30 5 Cl -2.6379 1.5378 0.0 0
M  V30 6 C -3.9391 -0.7097 0.0 0
M  V30 7 Cl -0.0354 -2.9691 0.0 0
M  V30 8 C -2.6379 -2.9573 0.0 0
M  V30 9 Cl -5.2521 0.0473 0.0 0
M  V30 10 C -3.9509 -2.2002 0.0 0
M  V30 11 C -2.6497 -4.4477 0.0 0
M  V30 12 C -3.9627 -5.1812 0.0 0
M  V30 13 C -1.3603 -5.1812 0.0 0
M  V30 14 Cl -5.2758 -4.4241 0.0 0
M  V30 15 C -3.9746 -6.6716 0.0 0
M  V30 16 C -1.3721 -6.6716 0.0 0
M  V30 17 Cl -5.2876 -7.4051 0.0 0
M  V30 18 C -2.6852 -7.4051 0.0 0
M  V30 19 Cl -2.697 -8.8955 0.0 0
M  V30 END ATOM
M  V30 BEGIN BOND
M  V30 1 1 1 2
M  V30 2 2 2 3
M  V30 3 1 2 4
M  V30 4 1 3 5
M  V30 5 1 3 6
M  V30 6 1 4 7
M  V30 7 2 4 8
M  V30 8 1 6 9
M  V30 9 2 6 10
M  V30 10 1 8 11
M  V30 11 2 11 12
M  V30 12 1 11 13
M  V30 13 1 12 14
M  V30 14 1 12 15
M  V30 15 2 13 16
M  V30 16 1 15 17
M  V30 17 2 15 18
M  V30 18 1 18 19
M  V30 19 1 8 10
M  V30 20 1 16 18
M  V30 END BOND
M  V30 END CTAB
M  END
>  <Molecule Name>
2,2',3,3',4,4',5-Heptachlorobiphenyl

>  <Order (spectra)>
226

>  <NAME>
2,2',3,3',4,4',5-Heptachlorobiphenyl

>  <Molecular Formula>
C12H3Cl7

>  <Monoisotopic Mass>
391.805439

>  <SMILES>
ClC1=CC(=C(Cl)C(Cl)=C1Cl)C1=C(Cl)C(Cl)=C(Cl)C=C1

>  <InChI>
InChI=1S/C12H3Cl7/c13-6-2-1-4(8(15)10(6)17)5-3-7(14)11(18)12(19)9(5)16/h1-3H

>  <InChIKey>
RMPWIIKNWPVWNG-UHFFFAOYSA-N

>  <Kingdom>
Organic compounds

>  <Superclass>
Benzenoids

>  <Class>
Benzene and substituted derivatives

>  <Subclass>
Biphenyls and derivatives

>  <Parent Level 1>
Chlorinated biphenyls

>  <Parent Level 2>
Polychlorinated biphenyls

>  <Parent Level 3>


>  <cLogP>
7.5608

>  <cLogS>
-8.854

>  <Druglikeness>
-1.9661

>  <NP-class probability>
0.01

>  <SmilesFragFp 3>


>  <MS_READY_SMILES>
ClC1=CC(=C(Cl)C(Cl)=C1Cl)C1=C(Cl)C(Cl)=C(Cl)C=C1

>  <MS_READY_InChI>
InChI=1S/C12H3Cl7/c13-6-2-1-4(8(15)10(6)17)5-3-7(14)11(18)12(19)9(5)16/h1-3H

>  <QSAR_READY_SMILES>
ClC1=CC(=C(Cl)C(Cl)=C1Cl)C1=C(Cl)C(Cl)=C(Cl)C=C1

>  <QSAR_READY_InChI>
InChI=1S/C12H3Cl7/c13-6-2-1-4(8(15)10(6)17)5-3-7(14)11(18)12(19)9(5)16/h1-3H

>  <DTXSID>
DTXSID2073481

>  <DTXCID>
DTXCID8038938

>  <CASRN>
35065-30-6

>  <EXPOCAST_MEDIAN_EXPOSURE_PREDICTION_MG/KG-BW/DAY>
6.32E-14

>  <BIOCONCENTRATION_FACTOR_TEST_PRED>
119399

>  <BOILING_POINT_DEGC_TEST_PRED>
429.363

>  <48HR_DAPHNIA_LC50_MOL/L_TEST_PRED>
4.76E-09

>  <DENSITY_G/CM^3_TEST_PRED>
1.737

>  <DEVTOX_TEST_PRED>
0.444

>  <96HR_FATHEAD_MINNOW_MOL/L_TEST_PRED>
4.98E-09

>  <FLASH_POINT_DEGC_TEST_PRED>
196.517

>  <MELTING_POINT_DEGC_TEST_PRED>
125.014

>  <AMES_MUTAGENICITY_TEST_PRED>
0.002

>  <ORAL_RAT_LD50_MOL/KG_TEST_PRED>
0.000032434

>  <SURFACE_TENSION_DYN/CM_TEST_PRED>
-

>  <THERMAL_CONDUCTIVITY_MW/(M*K)_TEST_PRED>
109.382

>  <TETRAHYMENA_PYRIFORMIS_IGC50_MOL/L_TEST_PRED>
2.96E-07

>  <VISCOSITY_CP_CP_TEST_PRED>
-

>  <VAPOR_PRESSURE_MMHG_TEST_PRED>
6.07E-07

>  <WATER_SOLUBILITY_MOL/L_TEST_PRED>
2.22E-09

>  <ATMOSPHERIC_HYDROXYLATION_RATE_(AOH)_CM3/MOLECULE*SEC_OPERA_PRED>
6.79E-13

>  <BIOCONCENTRATION_FACTOR_OPERA_PRED>
450723

>  <BIODEGRADATION_HALF_LIFE_DAYS_DAYS_OPERA_PRED>
20.2312

>  <BOILING_POINT_DEGC_OPERA_PRED>
404.08

>  <HENRYS_LAW_ATM-M3/MOLE_OPERA_PRED>
9.04E-06

>  <OPERA_KM_DAYS_OPERA_PRED>
292.534

>  <OCTANOL_AIR_PARTITION_COEFF_LOGKOA_OPERA_PRED>
10.4376

>  <SOIL_ADSORPTION_COEFFICIENT_KOC_L/KG_OPERA_PRED>
824186

>  <OCTANOL_WATER_PARTITION_LOGP_OPERA_PRED>
7.69323

>  <MELTING_POINT_DEGC_OPERA_PRED>
128.252

>  <VAPOR_PRESSURE_MMHG_OPERA_PRED>
6.34E-07

>  <WATER_SOLUBILITY_MOL/L_OPERA_PRED>
2.44E-09

>  <Shape Index>
0.52632

>  <Molecular Flexibility>
0.33408

>  <Molecular Complexity>
0.81672

>  <Electronegative Atoms>
7

>  <Stereo Centers>
0

>  <Rotatable Bonds>
1

>  <Rings Closures>
2

>  <Aromatic Rings>
2

>  <Aromatic Atoms>
12

>  <Amides>
0

>  <Amines>
0

>  <Aromatic Nitrogens>
0

>  <Shape Index 2>
0.52632

>  <Molecular Flexibility 2>
0.33408

>  <Molecular Complexity 2>
0.81672

>  <Non-C/H Atoms>
7

>  <Electronegative Atoms 2>
7

>  <Stereo Centers 2>
0

>  <Rotatable Bonds 2>
1

>  <Rings Closures 2>
2

>  <Aromatic Rings 2>
2

>  <Aromatic Atoms 2>
12

>  <sp3-Atoms>
0

>  <Amides 2>
0

>  <Amines 2>
0

>  <Aromatic Nitrogens 2>
0

>  <Basic Nitrogens>
0

$$$$
2,2',3,4,5'-Pentachlorobiphenyl
Actelion Java MolfileCreator 2.0

  0  0  0  0  0  0              0 V3000
M  V30 BEGIN CTAB
M  V30 COUNTS 17 18 0 0 0
M  V30 BEGIN ATOM
M  V30 1 Cl 0.0 0.0 0.0 0
M  V30 2 C -1.3071 -0.7418 0.0 0
M  V30 3 C -2.6142 0.0117 0.0 0
M  V30 4 C -1.3189 -2.2256 0.0 0
M  V30 5 Cl -2.626 1.5191 0.0 0
M  V30 6 C -3.9214 -0.7183 0.0 0
M  V30 7 Cl -0.0353 -2.9675 0.0 0
M  V30 8 C -2.626 -2.9675 0.0 0
M  V30 9 C -5.2285 0.0353 0.0 0
M  V30 10 C -3.9332 -2.2021 0.0 0
M  V30 11 C -5.2403 1.5426 0.0 0
M  V30 12 C -6.5357 -0.6947 0.0 0
M  V30 13 Cl -3.9567 2.2963 0.0 0
M  V30 14 C -6.5474 2.2963 0.0 0
M  V30 15 C -7.8428 0.0588 0.0 0
M  V30 16 C -7.8546 1.5544 0.0 0
M  V30 17 Cl -9.15 -0.6712 0.0 0
M  V30 END ATOM
M  V30 BEGIN BOND
M  V30 1 1 1 2
M  V30 2 2 2 3
M  V30 3 1 2 4
M  V30 4 1 3 5
M  V30 5 1 3 6
M  V30 6 1 4 7
M  V30 7 2 4 8
M  V30 8 1 6 9
M  V30 9 2 6 10
M  V30 10 2 9 11
M  V30 11 1 9 12
M  V30 12 1 11 13
M  V30 13 1 11 14
M  V30 14 2 12 15
M  V30 15 2 14 16
M  V30 16 1 15 17
M  V30 17 1 8 10
M  V30 18 1 15 16
M  V30 END BOND
M  V30 END CTAB
M  END
>  <Molecule Name>
2,2',3,4,5'-Pentachlorobiphenyl

>  <Order (spectra)>
227

>  <NAME>
2,2',3,4,5'-Pentachlorobiphenyl

>  <Molecular Formula>
C12H5Cl5

>  <Monoisotopic Mass>
323.883385

>  <SMILES>
ClC1=CC(=C(Cl)C=C1)C1=C(Cl)C(Cl)=C(Cl)C=C1

>  <InChI>
InChI=1S/C12H5Cl5/c13-6-1-3-9(14)8(5-6)7-2-4-10(15)12(17)11(7)16/h1-5H

>  <InChIKey>
OPKYDBFRKPQCBS-UHFFFAOYSA-N

>  <Kingdom>
Organic compounds

>  <Superclass>
Benzenoids

>  <Class>
Benzene and substituted derivatives

>  <Subclass>
Biphenyls and derivatives

>  <Parent Level 1>
Chlorinated biphenyls

>  <Parent Level 2>
Polychlorinated biphenyls

>  <Parent Level 3>


>  <cLogP>
6.3488

>  <cLogS>
-7.382

>  <Druglikeness>
-1.9661

>  <NP-class probability>
0.01

>  <SmilesFragFp 3>


>  <MS_READY_SMILES>
ClC1=CC(=C(Cl)C=C1)C1=C(Cl)C(Cl)=C(Cl)C=C1

>  <MS_READY_InChI>
InChI=1S/C12H5Cl5/c13-6-1-3-9(14)8(5-6)7-2-4-10(15)12(17)11(7)16/h1-5H

>  <QSAR_READY_SMILES>
ClC1=CC(=C(Cl)C=C1)C1=C(Cl)C(Cl)=C(Cl)C=C1

>  <QSAR_READY_InChI>
InChI=1S/C12H5Cl5/c13-6-1-3-9(14)8(5-6)7-2-4-10(15)12(17)11(7)16/h1-5H

>  <DTXSID>
DTXSID6073497

>  <DTXCID>
DTXCID5039484

>  <CASRN>
38380-02-8

>  <EXPOCAST_MEDIAN_EXPOSURE_PREDICTION_MG/KG-BW/DAY>
2.58E-14

>  <BIOCONCENTRATION_FACTOR_TEST_PRED>
30831.9

>  <BOILING_POINT_DEGC_TEST_PRED>
375.475

>  <48HR_DAPHNIA_LC50_MOL/L_TEST_PRED>
1.92E-08

>  <DENSITY_G/CM^3_TEST_PRED>
1.518

>  <DEVTOX_TEST_PRED>
0.418

>  <96HR_FATHEAD_MINNOW_MOL/L_TEST_PRED>
5.97E-08

>  <FLASH_POINT_DEGC_TEST_PRED>
181.641

>  <MELTING_POINT_DEGC_TEST_PRED>
103.388

>  <AMES_MUTAGENICITY_TEST_PRED>
-0.025

>  <ORAL_RAT_LD50_MOL/KG_TEST_PRED>
0.000251189

>  <SURFACE_TENSION_DYN/CM_TEST_PRED>
-

>  <THERMAL_CONDUCTIVITY_MW/(M*K)_TEST_PRED>
120.432

>  <TETRAHYMENA_PYRIFORMIS_IGC50_MOL/L_TEST_PRED>
2.89E-07

>  <VISCOSITY_CP_CP_TEST_PRED>
-

>  <VAPOR_PRESSURE_MMHG_TEST_PRED>
1.06E-05

>  <WATER_SOLUBILITY_MOL/L_TEST_PRED>
5.51E-08

>  <ATMOSPHERIC_HYDROXYLATION_RATE_(AOH)_CM3/MOLECULE*SEC_OPERA_PRED>
5.84E-13

>  <BIOCONCENTRATION_FACTOR_OPERA_PRED>
240229

>  <BIODEGRADATION_HALF_LIFE_DAYS_DAYS_OPERA_PRED>
15.531

>  <BOILING_POINT_DEGC_OPERA_PRED>
366.023

>  <HENRYS_LAW_ATM-M3/MOLE_OPERA_PRED>
7.40E-05

>  <OPERA_KM_DAYS_OPERA_PRED>
209.62

>  <OCTANOL_AIR_PARTITION_COEFF_LOGKOA_OPERA_PRED>
9.2372

>  <SOIL_ADSORPTION_COEFFICIENT_KOC_L/KG_OPERA_PRED>
72707.2

>  <OCTANOL_WATER_PARTITION_LOGP_OPERA_PRED>
6.80494

>  <MELTING_POINT_DEGC_OPERA_PRED>
101.413

>  <VAPOR_PRESSURE_MMHG_OPERA_PRED>
1.68E-05

>  <WATER_SOLUBILITY_MOL/L_OPERA_PRED>
4.51E-08

>  <Shape Index>
0.52941

>  <Molecular Flexibility>
0.33602

>  <Molecular Complexity>
0.76723

>  <Electronegative Atoms>
5

>  <Stereo Centers>
0

>  <Rotatable Bonds>
1

>  <Rings Closures>
2

>  <Aromatic Rings>
2

>  <Aromatic Atoms>
12

>  <Amides>
0

>  <Amines>
0

>  <Aromatic Nitrogens>
0

>  <Shape Index 2>
0.52941

>  <Molecular Flexibility 2>
0.33602

>  <Molecular Complexity 2>
0.76723

>  <Non-C/H Atoms>
5

>  <Electronegative Atoms 2>
5

>  <Stereo Centers 2>
0

>  <Rotatable Bonds 2>
1

>  <Rings Closures 2>
2

>  <Aromatic Rings 2>
2

>  <Aromatic Atoms 2>
12

>  <sp3-Atoms>
0

>  <Amides 2>
0

>  <Amines 2>
0

>  <Aromatic Nitrogens 2>
0

>  <Basic Nitrogens>
0

$$$$
2,3,3',4',6-Pentachlorobiphenyl
Actelion Java MolfileCreator 2.0

  0  0  0  0  0  0              0 V3000
M  V30 BEGIN CTAB
M  V30 COUNTS 17 18 0 0 0
M  V30 BEGIN ATOM
M  V30 1 Cl 0.0 0.0 0.0 0
M  V30 2 C -1.3074 -0.7303 0.0 0
M  V30 3 C -2.6149 0.0235 0.0 0
M  V30 4 C -1.3192 -2.2144 0.0 0
M  V30 5 C -3.9224 -0.7067 0.0 0
M  V30 6 C -2.6267 1.5312 0.0 0
M  V30 7 Cl -0.0353 -2.9565 0.0 0
M  V30 8 C -2.6267 -2.9447 0.0 0
M  V30 9 Cl -5.2299 0.0471 0.0 0
M  V30 10 C -3.9342 -2.1909 0.0 0
M  V30 11 C -1.3428 2.2851 0.0 0
M  V30 12 C -3.9342 2.2851 0.0 0
M  V30 13 C -1.3545 3.7928 0.0 0
M  V30 14 C -3.9459 3.7928 0.0 0
M  V30 15 Cl -0.0706 4.5467 0.0 0
M  V30 16 C -2.662 4.5584 0.0 0
M  V30 17 Cl -2.6738 6.0662 0.0 0
M  V30 END ATOM
M  V30 BEGIN BOND
M  V30 1 1 1 2
M  V30 2 2 2 3
M  V30 3 1 2 4
M  V30 4 1 3 5
M  V30 5 1 3 6
M  V30 6 1 4 7
M  V30 7 2 4 8
M  V30 8 1 5 9
M  V30 9 2 5 10
M  V30 10 2 6 11
M  V30 11 1 6 12
M  V30 12 1 11 13
M  V30 13 2 12 14
M  V30 14 1 13 15
M  V30 15 2 13 16
M  V30 16 1 16 17
M  V30 17 1 8 10
M  V30 18 1 14 16
M  V30 END BOND
M  V30 END CTAB
M  END
>  <Molecule Name>
2,3,3',4',6-Pentachlorobiphenyl

>  <Order (spectra)>
228

>  <NAME>
2,3,3',4',6-Pentachlorobiphenyl

>  <Molecular Formula>
C12H5Cl5

>  <Monoisotopic Mass>
323.883385

>  <SMILES>
ClC1=CC=C(Cl)C(=C1Cl)C1=CC(Cl)=C(Cl)C=C1

>  <InChI>
InChI=1S/C12H5Cl5/c13-7-2-1-6(5-10(7)16)11-8(14)3-4-9(15)12(11)17/h1-5H

>  <InChIKey>
ARXHIJMGSIYYRZ-UHFFFAOYSA-N

>  <Kingdom>
Organic compounds

>  <Superclass>
Benzenoids

>  <Class>
Benzene and substituted derivatives

>  <Subclass>
Biphenyls and derivatives

>  <Parent Level 1>
Chlorinated biphenyls

>  <Parent Level 2>
Polychlorinated biphenyls

>  <Parent Level 3>


>  <cLogP>
6.3488

>  <cLogS>
-7.382

>  <Druglikeness>
-1.9661

>  <NP-class probability>
0.01

>  <SmilesFragFp 3>


>  <MS_READY_SMILES>
ClC1=CC=C(Cl)C(=C1Cl)C1=CC(Cl)=C(Cl)C=C1

>  <MS_READY_InChI>
InChI=1S/C12H5Cl5/c13-7-2-1-6(5-10(7)16)11-8(14)3-4-9(15)12(11)17/h1-5H

>  <QSAR_READY_SMILES>
ClC1=CC=C(Cl)C(=C1Cl)C1=CC(Cl)=C(Cl)C=C1

>  <QSAR_READY_InChI>
InChI=1S/C12H5Cl5/c13-7-2-1-6(5-10(7)16)11-8(14)3-4-9(15)12(11)17/h1-5H

>  <DTXSID>
DTXSID3038307

>  <DTXCID>
DTXCID1018307

>  <CASRN>
38380-03-9

>  <EXPOCAST_MEDIAN_EXPOSURE_PREDICTION_MG/KG-BW/DAY>
3.75E-15

>  <BIOCONCENTRATION_FACTOR_TEST_PRED>
31477.5

>  <BOILING_POINT_DEGC_TEST_PRED>
376.816

>  <48HR_DAPHNIA_LC50_MOL/L_TEST_PRED>
1.93E-08

>  <DENSITY_G/CM^3_TEST_PRED>
1.518

>  <DEVTOX_TEST_PRED>
0.438

>  <96HR_FATHEAD_MINNOW_MOL/L_TEST_PRED>
6.24E-08

>  <FLASH_POINT_DEGC_TEST_PRED>
180.816

>  <MELTING_POINT_DEGC_TEST_PRED>
102.836

>  <AMES_MUTAGENICITY_TEST_PRED>
-0.028

>  <ORAL_RAT_LD50_MOL/KG_TEST_PRED>
0.000246037

>  <SURFACE_TENSION_DYN/CM_TEST_PRED>
-

>  <THERMAL_CONDUCTIVITY_MW/(M*K)_TEST_PRED>
120.36

>  <TETRAHYMENA_PYRIFORMIS_IGC50_MOL/L_TEST_PRED>
2.85E-07

>  <VISCOSITY_CP_CP_TEST_PRED>
-

>  <VAPOR_PRESSURE_MMHG_TEST_PRED>
9.38E-06

>  <WATER_SOLUBILITY_MOL/L_TEST_PRED>
4.98E-08

>  <ATMOSPHERIC_HYDROXYLATION_RATE_(AOH)_CM3/MOLECULE*SEC_OPERA_PRED>
6.00E-13

>  <BIOCONCENTRATION_FACTOR_OPERA_PRED>
184501

>  <BIODEGRADATION_HALF_LIFE_DAYS_DAYS_OPERA_PRED>
17.0687

>  <BOILING_POINT_DEGC_OPERA_PRED>
366.023

>  <HENRYS_LAW_ATM-M3/MOLE_OPERA_PRED>
7.59E-05

>  <OPERA_KM_DAYS_OPERA_PRED>
416.918

>  <OCTANOL_AIR_PARTITION_COEFF_LOGKOA_OPERA_PRED>
9.2372

>  <SOIL_ADSORPTION_COEFFICIENT_KOC_L/KG_OPERA_PRED>
163155

>  <OCTANOL_WATER_PARTITION_LOGP_OPERA_PRED>
6.23004

>  <MELTING_POINT_DEGC_OPERA_PRED>
102.385

>  <VAPOR_PRESSURE_MMHG_OPERA_PRED>
8.69E-06

>  <WATER_SOLUBILITY_MOL/L_OPERA_PRED>
3.33E-08

>  <Shape Index>
0.52941

>  <Molecular Flexibility>
0.35771

>  <Molecular Complexity>
0.75107

>  <Electronegative Atoms>
5

>  <Stereo Centers>
0

>  <Rotatable Bonds>
1

>  <Rings Closures>
2

>  <Aromatic Rings>
2

>  <Aromatic Atoms>
12

>  <Amides>
0

>  <Amines>
0

>  <Aromatic Nitrogens>
0

>  <Shape Index 2>
0.52941

>  <Molecular Flexibility 2>
0.35771

>  <Molecular Complexity 2>
0.75107

>  <Non-C/H Atoms>
5

>  <Electronegative Atoms 2>
5

>  <Stereo Centers 2>
0

>  <Rotatable Bonds 2>
1

>  <Rings Closures 2>
2

>  <Aromatic Rings 2>
2

>  <Aromatic Atoms 2>
12

>  <sp3-Atoms>
0

>  <Amides 2>
0

>  <Amines 2>
0

>  <Aromatic Nitrogens 2>
0

>  <Basic Nitrogens>
0

$$$$
2,2',3,3',4,4',5,5',6-Nonachlorobiphenyl
Actelion Java MolfileCreator 2.0

  0  0  0  0  0  0              0 V3000
M  V30 BEGIN CTAB
M  V30 COUNTS 21 22 0 0 0
M  V30 BEGIN ATOM
M  V30 1 Cl 0.0 0.0 0.0 0
M  V30 2 C -1.3097 -0.7315 0.0 0
M  V30 3 C -2.6195 0.0235 0.0 0
M  V30 4 C -1.3215 -2.2183 0.0 0
M  V30 5 Cl -2.6313 1.5339 0.0 0
M  V30 6 C -3.9292 -0.7079 0.0 0
M  V30 7 Cl -0.0353 -2.9617 0.0 0
M  V30 8 C -2.6313 -2.9499 0.0 0
M  V30 9 Cl -5.239 0.0471 0.0 0
M  V30 10 C -3.941 -2.1947 0.0 0
M  V30 11 Cl -2.6431 -4.4366 0.0 0
M  V30 12 C -5.2508 -2.9263 0.0 0
M  V30 13 C -6.5606 -2.1711 0.0 0
M  V30 14 C -5.2626 -4.413 0.0 0
M  V30 15 Cl -6.5724 -0.6607 0.0 0
M  V30 16 C -7.8703 -2.9027 0.0 0
M  V30 17 C -6.5724 -5.1446 0.0 0
M  V30 18 Cl -9.1801 -2.1475 0.0 0
M  V30 19 C -7.8821 -4.3894 0.0 0
M  V30 20 Cl -6.5842 -6.6314 0.0 0
M  V30 21 Cl -9.1919 -5.121 0.0 0
M  V30 END ATOM
M  V30 BEGIN BOND
M  V30 1 1 1 2
M  V30 2 2 2 3
M  V30 3 1 2 4
M  V30 4 1 3 5
M  V30 5 1 3 6
M  V30 6 1 4 7
M  V30 7 2 4 8
M  V30 8 1 6 9
M  V30 9 2 6 10
M  V30 10 1 8 11
M  V30 11 1 10 12
M  V30 12 2 12 13
M  V30 13 1 12 14
M  V30 14 1 13 15
M  V30 15 1 13 16
M  V30 16 2 14 17
M  V30 17 1 16 18
M  V30 18 2 16 19
M  V30 19 1 17 20
M  V30 20 1 19 21
M  V30 21 1 8 10
M  V30 22 1 17 19
M  V30 END BOND
M  V30 END CTAB
M  END
>  <Molecule Name>
2,2',3,3',4,4',5,5',6-Nonachlorobiphenyl

>  <Order (spectra)>
229

>  <NAME>
2,2',3,3',4,4',5,5',6-Nonachlorobiphenyl

>  <Molecular Formula>
C12HCl9

>  <Monoisotopic Mass>
459.727493

>  <SMILES>
ClC1=CC(=C(Cl)C(Cl)=C1Cl)C1=C(Cl)C(Cl)=C(Cl)C(Cl)=C1Cl

>  <InChI>
InChI=1S/C12HCl9/c13-3-1-2(5(14)9(18)6(3)15)4-7(16)10(19)12(21)11(20)8(4)17/h1H

>  <InChIKey>
JFIMDKGRGPNPRQ-UHFFFAOYSA-N

>  <Kingdom>
Organic compounds

>  <Superclass>
Benzenoids

>  <Class>
Benzene and substituted derivatives

>  <Subclass>
Biphenyls and derivatives

>  <Parent Level 1>
Chlorinated biphenyls

>  <Parent Level 2>
Polychlorinated biphenyls

>  <Parent Level 3>


>  <cLogP>
8.7728

>  <cLogS>
-10.326

>  <Druglikeness>
-1.9661

>  <NP-class probability>
0.01

>  <SmilesFragFp 3>


>  <MS_READY_SMILES>
ClC1=CC(=C(Cl)C(Cl)=C1Cl)C1=C(Cl)C(Cl)=C(Cl)C(Cl)=C1Cl

>  <MS_READY_InChI>
InChI=1S/C12HCl9/c13-3-1-2(5(14)9(18)6(3)15)4-7(16)10(19)12(21)11(20)8(4)17/h1H

>  <QSAR_READY_SMILES>
ClC1=CC(=C(Cl)C(Cl)=C1Cl)C1=C(Cl)C(Cl)=C(Cl)C(Cl)=C1Cl

>  <QSAR_READY_InChI>
InChI=1S/C12HCl9/c13-3-1-2(5(14)9(18)6(3)15)4-7(16)10(19)12(21)11(20)8(4)17/h1H

>  <DTXSID>
DTXSID50865989

>  <DTXCID>
DTXCID70814333

>  <CASRN>
40186-72-9

>  <EXPOCAST_MEDIAN_EXPOSURE_PREDICTION_MG/KG-BW/DAY>
1.11E-07

>  <BIOCONCENTRATION_FACTOR_TEST_PRED>
416869

>  <BOILING_POINT_DEGC_TEST_PRED>
475.02

>  <48HR_DAPHNIA_LC50_MOL/L_TEST_PRED>
1.84E-09

>  <DENSITY_G/CM^3_TEST_PRED>
1.97

>  <DEVTOX_TEST_PRED>
0.441

>  <96HR_FATHEAD_MINNOW_MOL/L_TEST_PRED>
4.59E-10

>  <FLASH_POINT_DEGC_TEST_PRED>
212.226

>  <MELTING_POINT_DEGC_TEST_PRED>
162.794

>  <AMES_MUTAGENICITY_TEST_PRED>
0.016

>  <ORAL_RAT_LD50_MOL/KG_TEST_PRED>
4.06E-05

>  <SURFACE_TENSION_DYN/CM_TEST_PRED>
-

>  <THERMAL_CONDUCTIVITY_MW/(M*K)_TEST_PRED>
104.92

>  <TETRAHYMENA_PYRIFORMIS_IGC50_MOL/L_TEST_PRED>
8.11E-08

>  <VISCOSITY_CP_CP_TEST_PRED>
-

>  <VAPOR_PRESSURE_MMHG_TEST_PRED>
7.14E-08

>  <WATER_SOLUBILITY_MOL/L_TEST_PRED>
6.25E-11

>  <ATMOSPHERIC_HYDROXYLATION_RATE_(AOH)_CM3/MOLECULE*SEC_OPERA_PRED>
6.20E-13

>  <BIOCONCENTRATION_FACTOR_OPERA_PRED>
179131

>  <BIODEGRADATION_HALF_LIFE_DAYS_DAYS_OPERA_PRED>
67.9633

>  <BOILING_POINT_DEGC_OPERA_PRED>
455.921

>  <HENRYS_LAW_ATM-M3/MOLE_OPERA_PRED>
1.09E-05

>  <OPERA_KM_DAYS_OPERA_PRED>
478.707

>  <OCTANOL_AIR_PARTITION_COEFF_LOGKOA_OPERA_PRED>
11.7496

>  <SOIL_ADSORPTION_COEFFICIENT_KOC_L/KG_OPERA_PRED>
925986

>  <OCTANOL_WATER_PARTITION_LOGP_OPERA_PRED>
8.91389

>  <MELTING_POINT_DEGC_OPERA_PRED>
221.845

>  <VAPOR_PRESSURE_MMHG_OPERA_PRED>
3.29E-08

>  <WATER_SOLUBILITY_MOL/L_OPERA_PRED>
4.60E-11

>  <Shape Index>
0.47619

>  <Molecular Flexibility>
0.32791

>  <Molecular Complexity>
0.84401

>  <Electronegative Atoms>
9

>  <Stereo Centers>
0

>  <Rotatable Bonds>
1

>  <Rings Closures>
2

>  <Aromatic Rings>
2

>  <Aromatic Atoms>
12

>  <Amides>
0

>  <Amines>
0

>  <Aromatic Nitrogens>
0

>  <Shape Index 2>
0.47619

>  <Molecular Flexibility 2>
0.32791

>  <Molecular Complexity 2>
0.84401

>  <Non-C/H Atoms>
9

>  <Electronegative Atoms 2>
9

>  <Stereo Centers 2>
0

>  <Rotatable Bonds 2>
1

>  <Rings Closures 2>
2

>  <Aromatic Rings 2>
2

>  <Aromatic Atoms 2>
12

>  <sp3-Atoms>
0

>  <Amides 2>
0

>  <Amines 2>
0

>  <Aromatic Nitrogens 2>
0

>  <Basic Nitrogens>
0

$$$$
2,2',3,5,5',6-Hexachlorobiphenyl
Actelion Java MolfileCreator 2.0

  0  0  0  0  0  0              0 V3000
M  V30 BEGIN CTAB
M  V30 COUNTS 18 19 0 0 0
M  V30 BEGIN ATOM
M  V30 1 Cl 0.0 0.0 0.0 0
M  V30 2 C -1.308 -0.7306 0.0 0
M  V30 3 C -2.6161 0.0235 0.0 0
M  V30 4 C -1.3198 -2.2154 0.0 0
M  V30 5 C -3.9241 -0.707 0.0 0
M  V30 6 C -2.6279 1.5319 0.0 0
M  V30 7 Cl -0.0353 -2.9578 0.0 0
M  V30 8 C -2.6279 -2.946 0.0 0
M  V30 9 Cl -5.2322 0.0471 0.0 0
M  V30 10 C -3.9359 -2.1918 0.0 0
M  V30 11 C -1.3434 2.2861 0.0 0
M  V30 12 C -3.9359 2.2861 0.0 0
M  V30 13 Cl -5.244 -2.9225 0.0 0
M  V30 14 Cl -0.0589 1.5555 0.0 0
M  V30 15 C -1.3551 3.7945 0.0 0
M  V30 16 C -3.9477 3.7945 0.0 0
M  V30 17 C -2.6632 4.5605 0.0 0
M  V30 18 Cl -5.2558 4.5487 0.0 0
M  V30 END ATOM
M  V30 BEGIN BOND
M  V30 1 1 1 2
M  V30 2 2 2 3
M  V30 3 1 2 4
M  V30 4 1 3 5
M  V30 5 1 3 6
M  V30 6 1 4 7
M  V30 7 2 4 8
M  V30 8 1 5 9
M  V30 9 2 5 10
M  V30 10 2 6 11
M  V30 11 1 6 12
M  V30 12 1 10 13
M  V30 13 1 11 14
M  V30 14 1 11 15
M  V30 15 2 12 16
M  V30 16 2 15 17
M  V30 17 1 16 18
M  V30 18 1 8 10
M  V30 19 1 16 17
M  V30 END BOND
M  V30 END CTAB
M  END
>  <Molecule Name>
2,2',3,5,5',6-Hexachlorobiphenyl

>  <Order (spectra)>
230

>  <NAME>
2,2',3,5,5',6-Hexachlorobiphenyl

>  <Molecular Formula>
C12H4Cl6

>  <Monoisotopic Mass>
357.844412

>  <SMILES>
ClC1=CC(=C(Cl)C=C1)C1=C(Cl)C(Cl)=CC(Cl)=C1Cl

>  <InChI>
InChI=1S/C12H4Cl6/c13-5-1-2-7(14)6(3-5)10-11(17)8(15)4-9(16)12(10)18/h1-4H

>  <InChIKey>
UHCLFIWDCYOTOL-UHFFFAOYSA-N

>  <Kingdom>
Organic compounds

>  <Superclass>
Benzenoids

>  <Class>
Benzene and substituted derivatives

>  <Subclass>
Biphenyls and derivatives

>  <Parent Level 1>
Chlorinated biphenyls

>  <Parent Level 2>
Polychlorinated biphenyls

>  <Parent Level 3>


>  <cLogP>
6.9548

>  <cLogS>
-8.118

>  <Druglikeness>
-1.9661

>  <NP-class probability>
0.01

>  <SmilesFragFp 3>


>  <MS_READY_SMILES>
ClC1=CC(=C(Cl)C=C1)C1=C(Cl)C(Cl)=CC(Cl)=C1Cl

>  <MS_READY_InChI>
InChI=1S/C12H4Cl6/c13-5-1-2-7(14)6(3-5)10-11(17)8(15)4-9(16)12(10)18/h1-4H

>  <QSAR_READY_SMILES>
ClC1=CC(=C(Cl)C=C1)C1=C(Cl)C(Cl)=CC(Cl)=C1Cl

>  <QSAR_READY_InChI>
InChI=1S/C12H4Cl6/c13-5-1-2-7(14)6(3-5)10-11(17)8(15)4-9(16)12(10)18/h1-4H

>  <DTXSID>
DTXSID2074160

>  <DTXCID>
DTXCID4041236

>  <CASRN>
52663-63-5

>  <EXPOCAST_MEDIAN_EXPOSURE_PREDICTION_MG/KG-BW/DAY>
2.39E-14

>  <BIOCONCENTRATION_FACTOR_TEST_PRED>
85310

>  <BOILING_POINT_DEGC_TEST_PRED>
388.712

>  <48HR_DAPHNIA_LC50_MOL/L_TEST_PRED>
1.69E-08

>  <DENSITY_G/CM^3_TEST_PRED>
1.604

>  <DEVTOX_TEST_PRED>
0.4

>  <96HR_FATHEAD_MINNOW_MOL/L_TEST_PRED>
1.37E-08

>  <FLASH_POINT_DEGC_TEST_PRED>
181.938

>  <MELTING_POINT_DEGC_TEST_PRED>
118.863

>  <AMES_MUTAGENICITY_TEST_PRED>
-0.009

>  <ORAL_RAT_LD50_MOL/KG_TEST_PRED>
0.00010666

>  <SURFACE_TENSION_DYN/CM_TEST_PRED>
-

>  <THERMAL_CONDUCTIVITY_MW/(M*K)_TEST_PRED>
116.968

>  <TETRAHYMENA_PYRIFORMIS_IGC50_MOL/L_TEST_PRED>
1.58E-07

>  <VISCOSITY_CP_CP_TEST_PRED>
-

>  <VAPOR_PRESSURE_MMHG_TEST_PRED>
2.59E-06

>  <WATER_SOLUBILITY_MOL/L_TEST_PRED>
9.42E-09

>  <ATMOSPHERIC_HYDROXYLATION_RATE_(AOH)_CM3/MOLECULE*SEC_OPERA_PRED>
6.59E-13

>  <BIOCONCENTRATION_FACTOR_OPERA_PRED>
346347

>  <BIODEGRADATION_HALF_LIFE_DAYS_DAYS_OPERA_PRED>
15.9546

>  <BOILING_POINT_DEGC_OPERA_PRED>
359.026

>  <HENRYS_LAW_ATM-M3/MOLE_OPERA_PRED>
5.83E-05

>  <OPERA_KM_DAYS_OPERA_PRED>
205.318

>  <OCTANOL_AIR_PARTITION_COEFF_LOGKOA_OPERA_PRED>
9.73319

>  <SOIL_ADSORPTION_COEFFICIENT_KOC_L/KG_OPERA_PRED>
1415440

>  <OCTANOL_WATER_PARTITION_LOGP_OPERA_PRED>
6.85752

>  <MELTING_POINT_DEGC_OPERA_PRED>
87.1109

>  <VAPOR_PRESSURE_MMHG_OPERA_PRED>
2.30E-06

>  <WATER_SOLUBILITY_MOL/L_OPERA_PRED>
1.09E-08

>  <Shape Index>
0.44444

>  <Molecular Flexibility>
0.31964

>  <Molecular Complexity>
0.7971

>  <Electronegative Atoms>
6

>  <Stereo Centers>
0

>  <Rotatable Bonds>
1

>  <Rings Closures>
2

>  <Aromatic Rings>
2

>  <Aromatic Atoms>
12

>  <Amides>
0

>  <Amines>
0

>  <Aromatic Nitrogens>
0

>  <Shape Index 2>
0.44444

>  <Molecular Flexibility 2>
0.31964

>  <Molecular Complexity 2>
0.7971

>  <Non-C/H Atoms>
6

>  <Electronegative Atoms 2>
6

>  <Stereo Centers 2>
0

>  <Rotatable Bonds 2>
1

>  <Rings Closures 2>
2

>  <Aromatic Rings 2>
2

>  <Aromatic Atoms 2>
12

>  <sp3-Atoms>
0

>  <Amides 2>
0

>  <Amines 2>
0

>  <Aromatic Nitrogens 2>
0

>  <Basic Nitrogens>
0

$$$$
2,2',3,4',5,5',6-Heptachloro-4-methoxybiphenyl
Actelion Java MolfileCreator 2.0

  0  0  0  0  0  0              0 V3000
M  V30 BEGIN CTAB
M  V30 COUNTS 21 22 0 0 0
M  V30 BEGIN ATOM
M  V30 1 Cl 0.0 0.0 0.0 0
M  V30 2 C 1.2931 0.7592 0.0 0
M  V30 3 C 2.5862 0.0237 0.0 0
M  V30 4 C 1.2812 2.2777 0.0 0
M  V30 5 Cl 2.5743 -1.471 0.0 0
M  V30 6 C 3.8793 0.7829 0.0 0
M  V30 7 O -0.0355 3.037 0.0 0
M  V30 8 C 2.5743 3.037 0.0 0
M  V30 9 C 3.8675 2.3015 0.0 0
M  V30 10 C 5.1725 0.0474 0.0 0
M  V30 11 C -1.3524 2.3015 0.0 0
M  V30 12 Cl 2.5625 4.5555 0.0 0
M  V30 13 Cl 5.1606 3.0607 0.0 0
M  V30 14 C 5.1606 -1.4473 0.0 0
M  V30 15 C 6.4656 0.8067 0.0 0
M  V30 16 Cl 3.8437 -2.1828 0.0 0
M  V30 17 C 6.4537 -2.1828 0.0 0
M  V30 18 C 7.7587 0.0711 0.0 0
M  V30 19 C 7.7468 -1.4236 0.0 0
M  V30 20 Cl 9.0518 0.8304 0.0 0
M  V30 21 Cl 9.04 -2.1591 0.0 0
M  V30 END ATOM
M  V30 BEGIN BOND
M  V30 1 1 1 2
M  V30 2 2 2 3
M  V30 3 1 2 4
M  V30 4 1 3 5
M  V30 5 1 3 6
M  V30 6 1 4 7
M  V30 7 2 4 8
M  V30 8 2 6 9
M  V30 9 1 6 10
M  V30 10 1 7 11
M  V30 11 1 8 12
M  V30 12 1 9 13
M  V30 13 2 10 14
M  V30 14 1 10 15
M  V30 15 1 14 16
M  V30 16 1 14 17
M  V30 17 2 15 18
M  V30 18 2 17 19
M  V30 19 1 18 20
M  V30 20 1 19 21
M  V30 21 1 8 9
M  V30 22 1 18 19
M  V30 END BOND
M  V30 END CTAB
M  END
>  <Molecule Name>
2,2',3,4',5,5',6-Heptachloro-4-methoxybiphenyl

>  <Order (spectra)>
231

>  <NAME>
2,2',3,4',5,5',6-Heptachloro-4-methoxybiphenyl

>  <Molecular Formula>
C13H5OCl7

>  <Monoisotopic Mass>
421.816004

>  <SMILES>
COC1=C(Cl)C(Cl)=C(C(Cl)=C1Cl)C1=CC(Cl)=C(Cl)C=C1Cl

>  <InChI>
InChI=1S/C13H5Cl7O/c1-21-13-11(19)9(17)8(10(18)12(13)20)4-2-6(15)7(16)3-5(4)14/h2-3H,1H3

>  <InChIKey>
KMYYWRRSXKVAQO-UHFFFAOYSA-N

>  <Kingdom>
Organic compounds

>  <Superclass>
Benzenoids

>  <Class>
Benzene and substituted derivatives

>  <Subclass>
Biphenyls and derivatives

>  <Parent Level 1>
Chlorinated biphenyls

>  <Parent Level 2>
Polychlorinated biphenyls

>  <Parent Level 3>


>  <cLogP>
7.4908

>  <cLogS>
-8.872

>  <Druglikeness>
-1.779

>  <NP-class probability>
0.3

>  <SmilesFragFp 3>


>  <MS_READY_SMILES>
COC1=C(Cl)C(Cl)=C(C(Cl)=C1Cl)C1=CC(Cl)=C(Cl)C=C1Cl

>  <MS_READY_InChI>
InChI=1S/C13H5Cl7O/c1-21-13-11(19)9(17)8(10(18)12(13)20)4-2-6(15)7(16)3-5(4)14/h2-3H,1H3

>  <QSAR_READY_SMILES>
COC1=C(Cl)C(Cl)=C(C(Cl)=C1Cl)C1=CC(Cl)=C(Cl)C=C1Cl

>  <QSAR_READY_InChI>
InChI=1S/C13H5Cl7O/c1-21-13-11(19)9(17)8(10(18)12(13)20)4-2-6(15)7(16)3-5(4)14/h2-3H,1H3

>  <DTXSID>
DTXSID00700715

>  <DTXCID>
DTXCID30651463

>  <CASRN>
169295-23-2

>  <EXPOCAST_MEDIAN_EXPOSURE_PREDICTION_MG/KG-BW/DAY>
6.01E-08

>  <BIOCONCENTRATION_FACTOR_TEST_PRED>
36643.8

>  <BOILING_POINT_DEGC_TEST_PRED>
460.547

>  <48HR_DAPHNIA_LC50_MOL/L_TEST_PRED>
1.74E-08

>  <DENSITY_G/CM^3_TEST_PRED>
1.721

>  <DEVTOX_TEST_PRED>
0.775

>  <96HR_FATHEAD_MINNOW_MOL/L_TEST_PRED>
8.69E-09

>  <FLASH_POINT_DEGC_TEST_PRED>
212.871

>  <MELTING_POINT_DEGC_TEST_PRED>
137.281

>  <AMES_MUTAGENICITY_TEST_PRED>
-0.047

>  <ORAL_RAT_LD50_MOL/KG_TEST_PRED>
0.00012735

>  <SURFACE_TENSION_DYN/CM_TEST_PRED>
-

>  <THERMAL_CONDUCTIVITY_MW/(M*K)_TEST_PRED>
116.835

>  <TETRAHYMENA_PYRIFORMIS_IGC50_MOL/L_TEST_PRED>
2.04E-08

>  <VISCOSITY_CP_CP_TEST_PRED>
-

>  <VAPOR_PRESSURE_MMHG_TEST_PRED>
7.05E-08

>  <WATER_SOLUBILITY_MOL/L_TEST_PRED>
4.81E-10

>  <ATMOSPHERIC_HYDROXYLATION_RATE_(AOH)_CM3/MOLECULE*SEC_OPERA_PRED>
7.16E-13

>  <BIOCONCENTRATION_FACTOR_OPERA_PRED>
9013.33

>  <BIODEGRADATION_HALF_LIFE_DAYS_DAYS_OPERA_PRED>
3.45431

>  <BOILING_POINT_DEGC_OPERA_PRED>
443.816

>  <HENRYS_LAW_ATM-M3/MOLE_OPERA_PRED>
0.001122

>  <OPERA_KM_DAYS_OPERA_PRED>
284.479

>  <OCTANOL_AIR_PARTITION_COEFF_LOGKOA_OPERA_PRED>
11.5588

>  <SOIL_ADSORPTION_COEFFICIENT_KOC_L/KG_OPERA_PRED>
1304860

>  <OCTANOL_WATER_PARTITION_LOGP_OPERA_PRED>
7.16707

>  <MELTING_POINT_DEGC_OPERA_PRED>
222.07

>  <VAPOR_PRESSURE_MMHG_OPERA_PRED>
7.80E-07

>  <WATER_SOLUBILITY_MOL/L_OPERA_PRED>
6.25E-11

>  <Shape Index>
0.52381

>  <Molecular Flexibility>
0.34787

>  <Molecular Complexity>
0.86856

>  <Electronegative Atoms>
8

>  <Stereo Centers>
0

>  <Rotatable Bonds>
2

>  <Rings Closures>
2

>  <Aromatic Rings>
2

>  <Aromatic Atoms>
12

>  <Amides>
0

>  <Amines>
0

>  <Aromatic Nitrogens>
0

>  <Shape Index 2>
0.52381

>  <Molecular Flexibility 2>
0.34787

>  <Molecular Complexity 2>
0.86856

>  <Non-C/H Atoms>
8

>  <Electronegative Atoms 2>
8

>  <Stereo Centers 2>
0

>  <Rotatable Bonds 2>
2

>  <Rings Closures 2>
2

>  <Aromatic Rings 2>
2

>  <Aromatic Atoms 2>
12

>  <sp3-Atoms>
2

>  <Amides 2>
0

>  <Amines 2>
0

>  <Aromatic Nitrogens 2>
0

>  <Basic Nitrogens>
0

$$$$
2,2',3',4,4',5-Hexachloro-3-methoxybiphenyl
Actelion Java MolfileCreator 2.0

  0  0  0  0  0  0              0 V3000
M  V30 BEGIN CTAB
M  V30 COUNTS 20 21 0 0 0
M  V30 BEGIN ATOM
M  V30 1 Cl 0.0 0.0 0.0 0
M  V30 2 C -0.0118 -1.4894 0.0 0
M  V30 3 C -1.3239 -2.2223 0.0 0
M  V30 4 C 1.2766 -2.2223 0.0 0
M  V30 5 Cl -2.6361 -1.4658 0.0 0
M  V30 6 C -1.3357 -3.7118 0.0 0
M  V30 7 Cl 2.5651 -1.4658 0.0 0
M  V30 8 C 1.2648 -3.7118 0.0 0
M  V30 9 C -2.6479 -4.4447 0.0 0
M  V30 10 C -0.0472 -4.4447 0.0 0
M  V30 11 C -3.96 -3.6881 0.0 0
M  V30 12 C -2.6597 -5.9341 0.0 0
M  V30 13 Cl -3.9718 -2.175 0.0 0
M  V30 14 C -5.2722 -4.421 0.0 0
M  V30 15 C -3.9718 -6.6789 0.0 0
M  V30 16 O -6.5843 -3.6645 0.0 0
M  V30 17 C -5.284 -5.9105 0.0 0
M  V30 18 Cl -3.9837 -8.1683 0.0 0
M  V30 19 C -7.8964 -4.3974 0.0 0
M  V30 20 Cl -6.5961 -6.6434 0.0 0
M  V30 END ATOM
M  V30 BEGIN BOND
M  V30 1 1 1 2
M  V30 2 2 2 3
M  V30 3 1 2 4
M  V30 4 1 3 5
M  V30 5 1 3 6
M  V30 6 1 4 7
M  V30 7 2 4 8
M  V30 8 1 6 9
M  V30 9 2 6 10
M  V30 10 2 9 11
M  V30 11 1 9 12
M  V30 12 1 11 13
M  V30 13 1 11 14
M  V30 14 2 12 15
M  V30 15 1 14 16
M  V30 16 2 14 17
M  V30 17 1 15 18
M  V30 18 1 16 19
M  V30 19 1 17 20
M  V30 20 1 8 10
M  V30 21 1 15 17
M  V30 END BOND
M  V30 END CTAB
M  END
>  <Molecule Name>
2,2',3',4,4',5-Hexachloro-3-methoxybiphenyl

>  <Order (spectra)>
232

>  <NAME>
2,2',3',4,4',5-Hexachloro-3-methoxybiphenyl

>  <Molecular Formula>
C13H6OCl6

>  <Monoisotopic Mass>
387.854977

>  <SMILES>
COC1=C(C(=CC(=C1Cl)Cl)C2=C(C(=C(C=C2)Cl)Cl)Cl)Cl

>  <InChI>
InChI=1S/C13H6Cl6O/c1-20-13-10(17)6(4-8(15)12(13)19)5-2-3-7(14)11(18)9(5)16/h2-4H,1H3

>  <InChIKey>
TXGGVMUGQFGMGI-UHFFFAOYSA-N

>  <Kingdom>
Organic compounds

>  <Superclass>
Benzenoids

>  <Class>
Benzene and substituted derivatives

>  <Subclass>
Biphenyls and derivatives

>  <Parent Level 1>
Chlorinated biphenyls

>  <Parent Level 2>
Polychlorinated biphenyls

>  <Parent Level 3>


>  <cLogP>
6.8848

>  <cLogS>
-8.136

>  <Druglikeness>
-1.779

>  <NP-class probability>
0.3

>  <SmilesFragFp 3>


>  <MS_READY_SMILES>
-

>  <MS_READY_InChI>


>  <QSAR_READY_SMILES>
-

>  <QSAR_READY_InChI>


>  <DTXSID>
-

>  <DTXCID>
-

>  <CASRN>
-

>  <EXPOCAST_MEDIAN_EXPOSURE_PREDICTION_MG/KG-BW/DAY>
-

>  <BIOCONCENTRATION_FACTOR_TEST_PRED>
-

>  <BOILING_POINT_DEGC_TEST_PRED>
-

>  <48HR_DAPHNIA_LC50_MOL/L_TEST_PRED>
-

>  <DENSITY_G/CM^3_TEST_PRED>
-

>  <DEVTOX_TEST_PRED>
-

>  <96HR_FATHEAD_MINNOW_MOL/L_TEST_PRED>
-

>  <FLASH_POINT_DEGC_TEST_PRED>
-

>  <MELTING_POINT_DEGC_TEST_PRED>
-

>  <AMES_MUTAGENICITY_TEST_PRED>
-

>  <ORAL_RAT_LD50_MOL/KG_TEST_PRED>
-

>  <SURFACE_TENSION_DYN/CM_TEST_PRED>
-

>  <THERMAL_CONDUCTIVITY_MW/(M*K)_TEST_PRED>
-

>  <TETRAHYMENA_PYRIFORMIS_IGC50_MOL/L_TEST_PRED>
-

>  <VISCOSITY_CP_CP_TEST_PRED>
-

>  <VAPOR_PRESSURE_MMHG_TEST_PRED>
-

>  <WATER_SOLUBILITY_MOL/L_TEST_PRED>
-

>  <ATMOSPHERIC_HYDROXYLATION_RATE_(AOH)_CM3/MOLECULE*SEC_OPERA_PRED>
-

>  <BIOCONCENTRATION_FACTOR_OPERA_PRED>
-

>  <BIODEGRADATION_HALF_LIFE_DAYS_DAYS_OPERA_PRED>
-

>  <BOILING_POINT_DEGC_OPERA_PRED>
-

>  <HENRYS_LAW_ATM-M3/MOLE_OPERA_PRED>
-

>  <OPERA_KM_DAYS_OPERA_PRED>
-

>  <OCTANOL_AIR_PARTITION_COEFF_LOGKOA_OPERA_PRED>
-

>  <SOIL_ADSORPTION_COEFFICIENT_KOC_L/KG_OPERA_PRED>
-

>  <OCTANOL_WATER_PARTITION_LOGP_OPERA_PRED>
-

>  <MELTING_POINT_DEGC_OPERA_PRED>
-

>  <VAPOR_PRESSURE_MMHG_OPERA_PRED>
-

>  <WATER_SOLUBILITY_MOL/L_OPERA_PRED>
-

>  <Shape Index>
0.5

>  <Molecular Flexibility>
0.36231

>  <Molecular Complexity>
0.84479

>  <Electronegative Atoms>
7

>  <Stereo Centers>
0

>  <Rotatable Bonds>
2

>  <Rings Closures>
2

>  <Aromatic Rings>
2

>  <Aromatic Atoms>
12

>  <Amides>
0

>  <Amines>
0

>  <Aromatic Nitrogens>
0

>  <Shape Index 2>
0.5

>  <Molecular Flexibility 2>
0.36231

>  <Molecular Complexity 2>
0.84479

>  <Non-C/H Atoms>
7

>  <Electronegative Atoms 2>
7

>  <Stereo Centers 2>
0

>  <Rotatable Bonds 2>
2

>  <Rings Closures 2>
2

>  <Aromatic Rings 2>
2

>  <Aromatic Atoms 2>
12

>  <sp3-Atoms>
2

>  <Amides 2>
0

>  <Amines 2>
0

>  <Aromatic Nitrogens 2>
0

>  <Basic Nitrogens>
0

$$$$
2,2',3,4',5,5'-Hexachloro-4-methoxybiphenyl
Actelion Java MolfileCreator 2.0

  0  0  0  0  0  0              0 V3000
M  V30 BEGIN CTAB
M  V30 COUNTS 20 21 0 0 0
M  V30 BEGIN ATOM
M  V30 1 Cl 0.0 0.0 0.0 0
M  V30 2 C 1.2931 0.7592 0.0 0
M  V30 3 C 2.5862 0.0237 0.0 0
M  V30 4 C 1.2812 2.2777 0.0 0
M  V30 5 Cl 2.5743 -1.471 0.0 0
M  V30 6 C 3.8793 0.7829 0.0 0
M  V30 7 O -0.0355 3.037 0.0 0
M  V30 8 C 2.5743 3.037 0.0 0
M  V30 9 C 5.1724 0.0474 0.0 0
M  V30 10 C 3.8674 2.3014 0.0 0
M  V30 11 C -1.3524 2.3014 0.0 0
M  V30 12 Cl 2.5624 4.5555 0.0 0
M  V30 13 C 5.1605 -1.4473 0.0 0
M  V30 14 C 6.4655 0.8067 0.0 0
M  V30 15 Cl 3.8437 -2.1828 0.0 0
M  V30 16 C 6.4536 -2.1828 0.0 0
M  V30 17 C 7.7586 0.0711 0.0 0
M  V30 18 C 7.7467 -1.4236 0.0 0
M  V30 19 Cl 9.0517 0.8304 0.0 0
M  V30 20 Cl 9.0398 -2.1591 0.0 0
M  V30 END ATOM
M  V30 BEGIN BOND
M  V30 1 1 1 2
M  V30 2 2 2 3
M  V30 3 1 2 4
M  V30 4 1 3 5
M  V30 5 1 3 6
M  V30 6 1 4 7
M  V30 7 2 4 8
M  V30 8 1 6 9
M  V30 9 2 6 10
M  V30 10 1 7 11
M  V30 11 1 8 12
M  V30 12 2 9 13
M  V30 13 1 9 14
M  V30 14 1 13 15
M  V30 15 1 13 16
M  V30 16 2 14 17
M  V30 17 2 16 18
M  V30 18 1 17 19
M  V30 19 1 18 20
M  V30 20 1 8 10
M  V30 21 1 17 18
M  V30 END BOND
M  V30 END CTAB
M  END
>  <Molecule Name>
2,2',3,4',5,5'-Hexachloro-4-methoxybiphenyl

>  <Order (spectra)>
233

>  <NAME>
2,2',3,4',5,5'-Hexachloro-4-methoxybiphenyl

>  <Molecular Formula>
C13H6OCl6

>  <Monoisotopic Mass>
387.854977

>  <SMILES>
COC1=C(C=C(C(=C1Cl)Cl)C2=CC(=C(C=C2Cl)Cl)Cl)Cl

>  <InChI>
InChI=1S/C13H6Cl6O/c1-20-13-10(17)3-6(11(18)12(13)19)5-2-8(15)9(16)4-7(5)14/h2-4H,1H3

>  <InChIKey>
AMJYFQPBRAAINT-UHFFFAOYSA-N

>  <Kingdom>
Organic compounds

>  <Superclass>
Benzenoids

>  <Class>
Benzene and substituted derivatives

>  <Subclass>
Biphenyls and derivatives

>  <Parent Level 1>
Chlorinated biphenyls

>  <Parent Level 2>
Polychlorinated biphenyls

>  <Parent Level 3>


>  <cLogP>
6.8848

>  <cLogS>
-8.136

>  <Druglikeness>
-1.779

>  <NP-class probability>
0.3

>  <SmilesFragFp 3>


>  <MS_READY_SMILES>
-

>  <MS_READY_InChI>


>  <QSAR_READY_SMILES>
-

>  <QSAR_READY_InChI>


>  <DTXSID>
-

>  <DTXCID>
-

>  <CASRN>
-

>  <EXPOCAST_MEDIAN_EXPOSURE_PREDICTION_MG/KG-BW/DAY>
-

>  <BIOCONCENTRATION_FACTOR_TEST_PRED>
-

>  <BOILING_POINT_DEGC_TEST_PRED>
-

>  <48HR_DAPHNIA_LC50_MOL/L_TEST_PRED>
-

>  <DENSITY_G/CM^3_TEST_PRED>
-

>  <DEVTOX_TEST_PRED>
-

>  <96HR_FATHEAD_MINNOW_MOL/L_TEST_PRED>
-

>  <FLASH_POINT_DEGC_TEST_PRED>
-

>  <MELTING_POINT_DEGC_TEST_PRED>
-

>  <AMES_MUTAGENICITY_TEST_PRED>
-

>  <ORAL_RAT_LD50_MOL/KG_TEST_PRED>
-

>  <SURFACE_TENSION_DYN/CM_TEST_PRED>
-

>  <THERMAL_CONDUCTIVITY_MW/(M*K)_TEST_PRED>
-

>  <TETRAHYMENA_PYRIFORMIS_IGC50_MOL/L_TEST_PRED>
-

>  <VISCOSITY_CP_CP_TEST_PRED>
-

>  <VAPOR_PRESSURE_MMHG_TEST_PRED>
-

>  <WATER_SOLUBILITY_MOL/L_TEST_PRED>
-

>  <ATMOSPHERIC_HYDROXYLATION_RATE_(AOH)_CM3/MOLECULE*SEC_OPERA_PRED>
-

>  <BIOCONCENTRATION_FACTOR_OPERA_PRED>
-

>  <BIODEGRADATION_HALF_LIFE_DAYS_DAYS_OPERA_PRED>
-

>  <BOILING_POINT_DEGC_OPERA_PRED>
-

>  <HENRYS_LAW_ATM-M3/MOLE_OPERA_PRED>
-

>  <OPERA_KM_DAYS_OPERA_PRED>
-

>  <OCTANOL_AIR_PARTITION_COEFF_LOGKOA_OPERA_PRED>
-

>  <SOIL_ADSORPTION_COEFFICIENT_KOC_L/KG_OPERA_PRED>
-

>  <OCTANOL_WATER_PARTITION_LOGP_OPERA_PRED>
-

>  <MELTING_POINT_DEGC_OPERA_PRED>
-

>  <VAPOR_PRESSURE_MMHG_OPERA_PRED>
-

>  <WATER_SOLUBILITY_MOL/L_OPERA_PRED>
-

>  <Shape Index>
0.55

>  <Molecular Flexibility>
0.36231

>  <Molecular Complexity>
0.83479

>  <Electronegative Atoms>
7

>  <Stereo Centers>
0

>  <Rotatable Bonds>
2

>  <Rings Closures>
2

>  <Aromatic Rings>
2

>  <Aromatic Atoms>
12

>  <Amides>
0

>  <Amines>
0

>  <Aromatic Nitrogens>
0

>  <Shape Index 2>
0.55

>  <Molecular Flexibility 2>
0.36231

>  <Molecular Complexity 2>
0.83479

>  <Non-C/H Atoms>
7

>  <Electronegative Atoms 2>
7

>  <Stereo Centers 2>
0

>  <Rotatable Bonds 2>
2

>  <Rings Closures 2>
2

>  <Aromatic Rings 2>
2

>  <Aromatic Atoms 2>
12

>  <sp3-Atoms>
2

>  <Amides 2>
0

>  <Amines 2>
0

>  <Aromatic Nitrogens 2>
0

>  <Basic Nitrogens>
0

$$$$
2,2',3,4,5,5'-Hexachlorobiphenyl
Actelion Java MolfileCreator 2.0

  0  0  0  0  0  0              0 V3000
M  V30 BEGIN CTAB
M  V30 COUNTS 18 19 0 0 0
M  V30 BEGIN ATOM
M  V30 1 Cl 0.0 0.0 0.0 0
M  V30 2 C -1.3132 -0.7335 0.0 0
M  V30 3 C -2.6265 0.0236 0.0 0
M  V30 4 C -1.3251 -2.2243 0.0 0
M  V30 5 Cl -2.6384 1.538 0.0 0
M  V30 6 C -3.9398 -0.7098 0.0 0
M  V30 7 Cl -0.0354 -2.9696 0.0 0
M  V30 8 C -2.6384 -2.9578 0.0 0
M  V30 9 Cl -5.2531 0.0473 0.0 0
M  V30 10 C -3.9516 -2.2006 0.0 0
M  V30 11 C -2.6502 -4.4486 0.0 0
M  V30 12 C -3.9635 -5.1821 0.0 0
M  V30 13 C -1.3606 -5.1821 0.0 0
M  V30 14 Cl -5.2768 -4.4249 0.0 0
M  V30 15 C -3.9753 -6.6729 0.0 0
M  V30 16 C -1.3724 -6.6729 0.0 0
M  V30 17 C -2.6857 -7.4064 0.0 0
M  V30 18 Cl -0.0828 -7.4183 0.0 0
M  V30 END ATOM
M  V30 BEGIN BOND
M  V30 1 1 1 2
M  V30 2 2 2 3
M  V30 3 1 2 4
M  V30 4 1 3 5
M  V30 5 1 3 6
M  V30 6 1 4 7
M  V30 7 2 4 8
M  V30 8 1 6 9
M  V30 9 2 6 10
M  V30 10 1 8 11
M  V30 11 2 11 12
M  V30 12 1 11 13
M  V30 13 1 12 14
M  V30 14 1 12 15
M  V30 15 2 13 16
M  V30 16 2 15 17
M  V30 17 1 16 18
M  V30 18 1 8 10
M  V30 19 1 16 17
M  V30 END BOND
M  V30 END CTAB
M  END
>  <Molecule Name>
2,2',3,4,5,5'-Hexachlorobiphenyl

>  <Order (spectra)>
234

>  <NAME>
2,2',3,4,5,5'-Hexachlorobiphenyl

>  <Molecular Formula>
C12H4Cl6

>  <Monoisotopic Mass>
357.844412

>  <SMILES>
ClC1=CC(=C(Cl)C=C1)C1=C(Cl)C(Cl)=C(Cl)C(Cl)=C1

>  <InChI>
InChI=1S/C12H4Cl6/c13-5-1-2-8(14)6(3-5)7-4-9(15)11(17)12(18)10(7)16/h1-4H

>  <InChIKey>
UCLKLGIYGBLTSM-UHFFFAOYSA-N

>  <Kingdom>
Organic compounds

>  <Superclass>
Benzenoids

>  <Class>
Benzene and substituted derivatives

>  <Subclass>
Biphenyls and derivatives

>  <Parent Level 1>
Chlorinated biphenyls

>  <Parent Level 2>
Polychlorinated biphenyls

>  <Parent Level 3>


>  <cLogP>
6.9548

>  <cLogS>
-8.118

>  <Druglikeness>
-1.9661

>  <NP-class probability>
0.01

>  <SmilesFragFp 3>


>  <MS_READY_SMILES>
ClC1=CC(=C(Cl)C=C1)C1=C(Cl)C(Cl)=C(Cl)C(Cl)=C1

>  <MS_READY_InChI>
InChI=1S/C12H4Cl6/c13-5-1-2-8(14)6(3-5)7-4-9(15)11(17)12(18)10(7)16/h1-4H

>  <QSAR_READY_SMILES>
ClC1=CC(=C(Cl)C=C1)C1=C(Cl)C(Cl)=C(Cl)C(Cl)=C1

>  <QSAR_READY_InChI>
InChI=1S/C12H4Cl6/c13-5-1-2-8(14)6(3-5)7-4-9(15)11(17)12(18)10(7)16/h1-4H

>  <DTXSID>
DTXSID6074174

>  <DTXCID>
DTXCID5041271

>  <CASRN>
52712-04-6

>  <EXPOCAST_MEDIAN_EXPOSURE_PREDICTION_MG/KG-BW/DAY>
2.69E-12

>  <BIOCONCENTRATION_FACTOR_TEST_PRED>
86696.2

>  <BOILING_POINT_DEGC_TEST_PRED>
396.788

>  <48HR_DAPHNIA_LC50_MOL/L_TEST_PRED>
9.75E-09

>  <DENSITY_G/CM^3_TEST_PRED>
1.605

>  <DEVTOX_TEST_PRED>
0.455

>  <96HR_FATHEAD_MINNOW_MOL/L_TEST_PRED>
2.33E-08

>  <FLASH_POINT_DEGC_TEST_PRED>
186.53

>  <MELTING_POINT_DEGC_TEST_PRED>
113.195

>  <AMES_MUTAGENICITY_TEST_PRED>
-0.017

>  <ORAL_RAT_LD50_MOL/KG_TEST_PRED>
7.43E-05

>  <SURFACE_TENSION_DYN/CM_TEST_PRED>
-

>  <THERMAL_CONDUCTIVITY_MW/(M*K)_TEST_PRED>
120.291

>  <TETRAHYMENA_PYRIFORMIS_IGC50_MOL/L_TEST_PRED>
1.47E-07

>  <VISCOSITY_CP_CP_TEST_PRED>
-

>  <VAPOR_PRESSURE_MMHG_TEST_PRED>
2.54E-06

>  <WATER_SOLUBILITY_MOL/L_TEST_PRED>
7.53E-09

>  <ATMOSPHERIC_HYDROXYLATION_RATE_(AOH)_CM3/MOLECULE*SEC_OPERA_PRED>
6.59E-13

>  <BIOCONCENTRATION_FACTOR_OPERA_PRED>
372920

>  <BIODEGRADATION_HALF_LIFE_DAYS_DAYS_OPERA_PRED>
15.9642

>  <BOILING_POINT_DEGC_OPERA_PRED>
359.141

>  <HENRYS_LAW_ATM-M3/MOLE_OPERA_PRED>
2.33E-05

>  <OPERA_KM_DAYS_OPERA_PRED>
225.959

>  <OCTANOL_AIR_PARTITION_COEFF_LOGKOA_OPERA_PRED>
9.7986

>  <SOIL_ADSORPTION_COEFFICIENT_KOC_L/KG_OPERA_PRED>
798959

>  <OCTANOL_WATER_PARTITION_LOGP_OPERA_PRED>
7.19492

>  <MELTING_POINT_DEGC_OPERA_PRED>
91.5213

>  <VAPOR_PRESSURE_MMHG_OPERA_PRED>
3.39E-06

>  <WATER_SOLUBILITY_MOL/L_OPERA_PRED>
1.66E-08

>  <Shape Index>
0.5

>  <Molecular Flexibility>
0.32417

>  <Molecular Complexity>
0.79438

>  <Electronegative Atoms>
6

>  <Stereo Centers>
0

>  <Rotatable Bonds>
1

>  <Rings Closures>
2

>  <Aromatic Rings>
2

>  <Aromatic Atoms>
12

>  <Amides>
0

>  <Amines>
0

>  <Aromatic Nitrogens>
0

>  <Shape Index 2>
0.5

>  <Molecular Flexibility 2>
0.32417

>  <Molecular Complexity 2>
0.79438

>  <Non-C/H Atoms>
6

>  <Electronegative Atoms 2>
6

>  <Stereo Centers 2>
0

>  <Rotatable Bonds 2>
1

>  <Rings Closures 2>
2

>  <Aromatic Rings 2>
2

>  <Aromatic Atoms 2>
12

>  <sp3-Atoms>
0

>  <Amides 2>
0

>  <Amines 2>
0

>  <Aromatic Nitrogens 2>
0

>  <Basic Nitrogens>
0

$$$$
Mexacarbate
Actelion Java MolfileCreator 2.0

  0  0  0  0  0  0              0 V3000
M  V30 BEGIN CTAB
M  V30 COUNTS 16 16 0 0 0
M  V30 BEGIN ATOM
M  V30 1 O 0.0 0.0 0.0 0
M  V30 2 C -0.0118 1.5182 0.0 0
M  V30 3 O 1.281 2.2773 0.0 0
M  V30 4 N -1.3284 2.2773 0.0 0
M  V30 5 C 2.5739 1.5301 0.0 0
M  V30 6 C -2.645 1.5301 0.0 0
M  V30 7 C 2.562 0.0355 0.0 0
M  V30 8 C 3.8668 2.2892 0.0 0
M  V30 9 C 3.8549 -0.7116 0.0 0
M  V30 10 C 5.1597 1.5419 0.0 0
M  V30 11 C 5.1478 0.0474 0.0 0
M  V30 12 C 3.843 -2.2062 0.0 0
M  V30 13 C 6.4526 2.3011 0.0 0
M  V30 14 N 6.4407 -0.6998 0.0 0
M  V30 15 C 6.4288 -2.1943 0.0 0
M  V30 16 C 7.7336 0.0593 0.0 0
M  V30 END ATOM
M  V30 BEGIN BOND
M  V30 1 2 1 2
M  V30 2 1 2 3
M  V30 3 1 2 4
M  V30 4 1 3 5
M  V30 5 1 4 6
M  V30 6 2 5 7
M  V30 7 1 5 8
M  V30 8 1 7 9
M  V30 9 2 8 10
M  V30 10 2 9 11
M  V30 11 1 9 12
M  V30 12 1 10 13
M  V30 13 1 11 14
M  V30 14 1 14 15
M  V30 15 1 14 16
M  V30 16 1 10 11
M  V30 END BOND
M  V30 END CTAB
M  END
>  <Molecule Name>
Mexacarbate

>  <Order (spectra)>
236

>  <NAME>
Mexacarbate

>  <Molecular Formula>
C12H18N2O2

>  <Monoisotopic Mass>
222.136828

>  <SMILES>
CNC(=O)OC1=CC(C)=C(N(C)C)C(C)=C1

>  <InChI>
InChI=1S/C12H18N2O2/c1-8-6-10(16-12(15)13-3)7-9(2)11(8)14(4)5/h6-7H,1-5H3,(H,13,15)

>  <InChIKey>
YNEVBPNZHBAYOA-UHFFFAOYSA-N

>  <Kingdom>
Organic compounds

>  <Superclass>
Benzenoids

>  <Class>
Benzene and substituted derivatives

>  <Subclass>
Phenyl methylcarbamates

>  <Parent Level 1>
Phenyl methylcarbamates

>  <Parent Level 2>


>  <Parent Level 3>


>  <cLogP>
1.9595

>  <cLogS>
-2.819

>  <Druglikeness>
-2.3072

>  <NP-class probability>
0.14

>  <SmilesFragFp 3>


>  <MS_READY_SMILES>
CNC(=O)OC1=CC(C)=C(N(C)C)C(C)=C1

>  <MS_READY_InChI>
InChI=1S/C12H18N2O2/c1-8-6-10(16-12(15)13-3)7-9(2)11(8)14(4)5/h6-7H,1-5H3,(H,13,15)

>  <QSAR_READY_SMILES>
CNC(=O)OC1=CC(C)=C(N(C)C)C(C)=C1

>  <QSAR_READY_InChI>
InChI=1S/C12H18N2O2/c1-8-6-10(16-12(15)13-3)7-9(2)11(8)14(4)5/h6-7H,1-5H3,(H,13,15)

>  <DTXSID>
DTXSID7020893

>  <DTXCID>
DTXCID50893

>  <CASRN>
315-18-4

>  <EXPOCAST_MEDIAN_EXPOSURE_PREDICTION_MG/KG-BW/DAY>
-

>  <BIOCONCENTRATION_FACTOR_TEST_PRED>
10

>  <BOILING_POINT_DEGC_TEST_PRED>
319.403

>  <48HR_DAPHNIA_LC50_MOL/L_TEST_PRED>
3.57E-05

>  <DENSITY_G/CM^3_TEST_PRED>
1.043

>  <DEVTOX_TEST_PRED>
0.794

>  <96HR_FATHEAD_MINNOW_MOL/L_TEST_PRED>
3.63E-05

>  <FLASH_POINT_DEGC_TEST_PRED>
152.115

>  <MELTING_POINT_DEGC_TEST_PRED>
83.083

>  <AMES_MUTAGENICITY_TEST_PRED>
0.558

>  <ORAL_RAT_LD50_MOL/KG_TEST_PRED>
0.000234963

>  <SURFACE_TENSION_DYN/CM_TEST_PRED>
-

>  <THERMAL_CONDUCTIVITY_MW/(M*K)_TEST_PRED>
-

>  <TETRAHYMENA_PYRIFORMIS_IGC50_MOL/L_TEST_PRED>
-

>  <VISCOSITY_CP_CP_TEST_PRED>
26.1818

>  <VAPOR_PRESSURE_MMHG_TEST_PRED>
4.67E-05

>  <WATER_SOLUBILITY_MOL/L_TEST_PRED>
0.00140605

>  <ATMOSPHERIC_HYDROXYLATION_RATE_(AOH)_CM3/MOLECULE*SEC_OPERA_PRED>
1.45E-11

>  <BIOCONCENTRATION_FACTOR_OPERA_PRED>
26.2914

>  <BIODEGRADATION_HALF_LIFE_DAYS_DAYS_OPERA_PRED>
5.13115

>  <BOILING_POINT_DEGC_OPERA_PRED>
284.79

>  <HENRYS_LAW_ATM-M3/MOLE_OPERA_PRED>
4.06E-09

>  <OPERA_KM_DAYS_OPERA_PRED>
0.257589

>  <OCTANOL_AIR_PARTITION_COEFF_LOGKOA_OPERA_PRED>
9.44806

>  <SOIL_ADSORPTION_COEFFICIENT_KOC_L/KG_OPERA_PRED>
301.049

>  <OCTANOL_WATER_PARTITION_LOGP_OPERA_PRED>
2.55884

>  <MELTING_POINT_DEGC_OPERA_PRED>
85.0654

>  <VAPOR_PRESSURE_MMHG_OPERA_PRED>
8.90E-06

>  <WATER_SOLUBILITY_MOL/L_OPERA_PRED>
0.000450842

>  <Shape Index>
0.625

>  <Molecular Flexibility>
0.41692

>  <Molecular Complexity>
0.63962

>  <Electronegative Atoms>
4

>  <Stereo Centers>
0

>  <Rotatable Bonds>
3

>  <Rings Closures>
1

>  <Aromatic Rings>
1

>  <Aromatic Atoms>
6

>  <Amides>
1

>  <Amines>
1

>  <Aromatic Nitrogens>
0

>  <Shape Index 2>
0.625

>  <Molecular Flexibility 2>
0.41692

>  <Molecular Complexity 2>
0.63962

>  <Non-C/H Atoms>
4

>  <Electronegative Atoms 2>
4

>  <Stereo Centers 2>
0

>  <Rotatable Bonds 2>
3

>  <Rings Closures 2>
1

>  <Aromatic Rings 2>
1

>  <Aromatic Atoms 2>
6

>  <sp3-Atoms>
7

>  <Amides 2>
1

>  <Amines 2>
1

>  <Aromatic Nitrogens 2>
0

>  <Basic Nitrogens>
0

$$$$
Aminocarb
Actelion Java MolfileCreator 2.0

  0  0  0  0  0  0              0 V3000
M  V30 BEGIN CTAB
M  V30 COUNTS 15 15 0 0 0
M  V30 BEGIN ATOM
M  V30 1 O 0.0 0.0 0.0 0
M  V30 2 C -0.0118 1.5182 0.0 0
M  V30 3 O 1.2809 2.2773 0.0 0
M  V30 4 N -1.3284 2.2773 0.0 0
M  V30 5 C 2.5738 1.53 0.0 0
M  V30 6 C -2.645 1.53 0.0 0
M  V30 7 C 2.5619 0.0355 0.0 0
M  V30 8 C 3.8666 2.2891 0.0 0
M  V30 9 C 3.8548 -0.7116 0.0 0
M  V30 10 C 5.1595 1.5419 0.0 0
M  V30 11 C 5.1476 0.0474 0.0 0
M  V30 12 C 3.8429 -2.2061 0.0 0
M  V30 13 N 6.4405 -0.6998 0.0 0
M  V30 14 C 6.4286 -2.1942 0.0 0
M  V30 15 C 7.7333 0.0593 0.0 0
M  V30 END ATOM
M  V30 BEGIN BOND
M  V30 1 2 1 2
M  V30 2 1 2 3
M  V30 3 1 2 4
M  V30 4 1 3 5
M  V30 5 1 4 6
M  V30 6 2 5 7
M  V30 7 1 5 8
M  V30 8 1 7 9
M  V30 9 2 8 10
M  V30 10 2 9 11
M  V30 11 1 9 12
M  V30 12 1 11 13
M  V30 13 1 13 14
M  V30 14 1 13 15
M  V30 15 1 10 11
M  V30 END BOND
M  V30 END CTAB
M  END
>  <Molecule Name>
Aminocarb

>  <Order (spectra)>
237

>  <NAME>
Aminocarb

>  <Molecular Formula>
C11H16N2O2

>  <Monoisotopic Mass>
208.121178

>  <SMILES>
CNC(=O)OC1=CC(C)=C(C=C1)N(C)C

>  <InChI>
InChI=1S/C11H16N2O2/c1-8-7-9(15-11(14)12-2)5-6-10(8)13(3)4/h5-7H,1-4H3,(H,12,14)

>  <InChIKey>
IMIDOCRTMDIQIJ-UHFFFAOYSA-N

>  <Kingdom>
Organic compounds

>  <Superclass>
Benzenoids

>  <Class>
Benzene and substituted derivatives

>  <Subclass>
Phenoxy compounds

>  <Parent Level 1>
Phenoxy compounds

>  <Parent Level 2>


>  <Parent Level 3>


>  <cLogP>
1.6156

>  <cLogS>
-2.475

>  <Druglikeness>
-2.3072

>  <NP-class probability>
0.14

>  <SmilesFragFp 3>


>  <MS_READY_SMILES>
CNC(=O)OC1=CC(C)=C(C=C1)N(C)C

>  <MS_READY_InChI>
InChI=1S/C11H16N2O2/c1-8-7-9(15-11(14)12-2)5-6-10(8)13(3)4/h5-7H,1-4H3,(H,12,14)

>  <QSAR_READY_SMILES>
CNC(=O)OC1=CC(C)=C(C=C1)N(C)C

>  <QSAR_READY_InChI>
InChI=1S/C11H16N2O2/c1-8-7-9(15-11(14)12-2)5-6-10(8)13(3)4/h5-7H,1-4H3,(H,12,14)

>  <DTXSID>
DTXSID7022172

>  <DTXCID>
DTXCID302172

>  <CASRN>
2032-59-9

>  <EXPOCAST_MEDIAN_EXPOSURE_PREDICTION_MG/KG-BW/DAY>
-

>  <BIOCONCENTRATION_FACTOR_TEST_PRED>
7.04693

>  <BOILING_POINT_DEGC_TEST_PRED>
309.916

>  <48HR_DAPHNIA_LC50_MOL/L_TEST_PRED>
2.62E-05

>  <DENSITY_G/CM^3_TEST_PRED>
1.06

>  <DEVTOX_TEST_PRED>
0.773

>  <96HR_FATHEAD_MINNOW_MOL/L_TEST_PRED>
6.05E-05

>  <FLASH_POINT_DEGC_TEST_PRED>
149.141

>  <MELTING_POINT_DEGC_TEST_PRED>
78.565

>  <AMES_MUTAGENICITY_TEST_PRED>
0.651

>  <ORAL_RAT_LD50_MOL/KG_TEST_PRED>
0.000260016

>  <SURFACE_TENSION_DYN/CM_TEST_PRED>
-

>  <THERMAL_CONDUCTIVITY_MW/(M*K)_TEST_PRED>
-

>  <TETRAHYMENA_PYRIFORMIS_IGC50_MOL/L_TEST_PRED>
-

>  <VISCOSITY_CP_CP_TEST_PRED>
18.8365

>  <VAPOR_PRESSURE_MMHG_TEST_PRED>
2.63E-05

>  <WATER_SOLUBILITY_MOL/L_TEST_PRED>
0.00326588

>  <ATMOSPHERIC_HYDROXYLATION_RATE_(AOH)_CM3/MOLECULE*SEC_OPERA_PRED>
1.46E-11

>  <BIOCONCENTRATION_FACTOR_OPERA_PRED>
15.901

>  <BIODEGRADATION_HALF_LIFE_DAYS_DAYS_OPERA_PRED>
4.63697

>  <BOILING_POINT_DEGC_OPERA_PRED>
284.998

>  <HENRYS_LAW_ATM-M3/MOLE_OPERA_PRED>
4.28E-09

>  <OPERA_KM_DAYS_OPERA_PRED>
0.247212

>  <OCTANOL_AIR_PARTITION_COEFF_LOGKOA_OPERA_PRED>
8.62945

>  <SOIL_ADSORPTION_COEFFICIENT_KOC_L/KG_OPERA_PRED>
100.133

>  <OCTANOL_WATER_PARTITION_LOGP_OPERA_PRED>
1.9013

>  <MELTING_POINT_DEGC_OPERA_PRED>
93.5005

>  <VAPOR_PRESSURE_MMHG_OPERA_PRED>
1.61E-05

>  <WATER_SOLUBILITY_MOL/L_OPERA_PRED>
0.00436202

>  <Shape Index>
0.66667

>  <Molecular Flexibility>
0.43352

>  <Molecular Complexity>
0.60895

>  <Electronegative Atoms>
4

>  <Stereo Centers>
0

>  <Rotatable Bonds>
3

>  <Rings Closures>
1

>  <Aromatic Rings>
1

>  <Aromatic Atoms>
6

>  <Amides>
1

>  <Amines>
1

>  <Aromatic Nitrogens>
0

>  <Shape Index 2>
0.66667

>  <Molecular Flexibility 2>
0.43352

>  <Molecular Complexity 2>
0.60895

>  <Non-C/H Atoms>
4

>  <Electronegative Atoms 2>
4

>  <Stereo Centers 2>
0

>  <Rotatable Bonds 2>
3

>  <Rings Closures 2>
1

>  <Aromatic Rings 2>
1

>  <Aromatic Atoms 2>
6

>  <sp3-Atoms>
6

>  <Amides 2>
1

>  <Amines 2>
1

>  <Aromatic Nitrogens 2>
0

>  <Basic Nitrogens>
0

$$$$
Isocarbophos
Actelion Java MolfileCreator 2.0

  0  0  0  0  0  0              0 V3000
M  V30 BEGIN CTAB
M  V30 COUNTS 18 18 0 0 0
M  V30 BEGIN ATOM
M  V30 1 S 0.0 0.0 0.0 0
M  V30 2 P -0.7577 -1.2904 0.0 0 CFG=2
M  V30 3 O -0.7695 -2.7821 0.0 0
M  V30 4 O -2.0718 -0.5327 0.0 0
M  V30 5 N 0.734 -1.2786 0.0 0
M  V30 6 C 0.5209 -3.528 0.0 0
M  V30 7 C -2.0836 0.9826 0.0 0
M  V30 8 C 0.509 -5.0197 0.0 0
M  V30 9 C 1.8113 -2.7703 0.0 0
M  V30 10 C -0.805 -5.7656 0.0 0
M  V30 11 C 1.7995 -5.7656 0.0 0
M  V30 12 C 3.1018 -3.5162 0.0 0
M  V30 13 O -0.8169 -7.2573 0.0 0
M  V30 14 O -2.1192 -5.0079 0.0 0
M  V30 15 C 3.09 -5.0079 0.0 0
M  V30 16 C -3.4333 -5.7538 0.0 0
M  V30 17 C -3.4451 -7.2455 0.0 0
M  V30 18 C -4.7474 -4.9961 0.0 0
M  V30 END ATOM
M  V30 BEGIN BOND
M  V30 1 2 1 2
M  V30 2 1 2 3
M  V30 3 1 2 4
M  V30 4 1 2 5 CFG=1
M  V30 5 1 3 6
M  V30 6 1 4 7
M  V30 7 2 6 8
M  V30 8 1 6 9
M  V30 9 1 8 10
M  V30 10 1 8 11
M  V30 11 2 9 12
M  V30 12 2 10 13
M  V30 13 1 10 14
M  V30 14 2 11 15
M  V30 15 1 14 16
M  V30 16 1 16 17
M  V30 17 1 16 18
M  V30 18 1 12 15
M  V30 END BOND
M  V30 BEGIN COLLECTION
M  V30 MDLV30/STERAC1 ATOMS=(1 2)
M  V30 END COLLECTION
M  V30 END CTAB
M  END
>  <Molecule Name>
Isocarbophos

>  <Order (spectra)>
238

>  <NAME>
Isocarbophos

>  <Molecular Formula>
C11H16NO4PS

>  <Monoisotopic Mass>
289.053766

>  <SMILES>
COP(N)(=S)OC1=C(C=CC=C1)C(=O)OC(C)C

>  <InChI>
InChI=1S/C11H16NO4PS/c1-8(2)15-11(13)9-6-4-5-7-10(9)16-17(12,18)14-3/h4-8H,1-3H3,(H2,12,18)/t17-/m0/s1

>  <InChIKey>
YFVOXLJXJBQDEF-UHFFFAOYSA-N

>  <Kingdom>
Organic compounds

>  <Superclass>
Benzenoids

>  <Class>
Benzene and substituted derivatives

>  <Subclass>
Benzoic acids and derivatives

>  <Parent Level 1>
Benzoic acid esters

>  <Parent Level 2>


>  <Parent Level 3>


>  <cLogP>
2.9602

>  <cLogS>
-4.715

>  <Druglikeness>
-8.9175

>  <NP-class probability>
0.27

>  <SmilesFragFp 3>


>  <MS_READY_SMILES>
COP(N)(=S)OC1=C(C=CC=C1)C(=O)OC(C)C

>  <MS_READY_InChI>
InChI=1S/C11H16NO4PS/c1-8(2)15-11(13)9-6-4-5-7-10(9)16-17(12,18)14-3/h4-8H,1-3H3,(H2,12,18)/t17-/m0/s1

>  <QSAR_READY_SMILES>
COP(N)(=S)OC1=C(C=CC=C1)C(=O)OC(C)C

>  <QSAR_READY_InChI>
InChI=1S/C11H16NO4PS/c1-8(2)15-11(13)9-6-4-5-7-10(9)16-17(12,18)14-3/h4-8H,1-3H3,(H2,12,18)/t17-/m0/s1

>  <DTXSID>
DTXSID7042063

>  <DTXCID>
DTXCID5022063

>  <CASRN>
24353-61-5

>  <EXPOCAST_MEDIAN_EXPOSURE_PREDICTION_MG/KG-BW/DAY>
5.14E-07

>  <BIOCONCENTRATION_FACTOR_TEST_PRED>
-

>  <BOILING_POINT_DEGC_TEST_PRED>
-

>  <48HR_DAPHNIA_LC50_MOL/L_TEST_PRED>
1.19E-07

>  <DENSITY_G/CM^3_TEST_PRED>
-

>  <DEVTOX_TEST_PRED>
0.663

>  <96HR_FATHEAD_MINNOW_MOL/L_TEST_PRED>
-

>  <FLASH_POINT_DEGC_TEST_PRED>
-

>  <MELTING_POINT_DEGC_TEST_PRED>
-

>  <AMES_MUTAGENICITY_TEST_PRED>
-

>  <ORAL_RAT_LD50_MOL/KG_TEST_PRED>
0.000180717

>  <SURFACE_TENSION_DYN/CM_TEST_PRED>
-

>  <THERMAL_CONDUCTIVITY_MW/(M*K)_TEST_PRED>
-

>  <TETRAHYMENA_PYRIFORMIS_IGC50_MOL/L_TEST_PRED>
-

>  <VISCOSITY_CP_CP_TEST_PRED>
-

>  <VAPOR_PRESSURE_MMHG_TEST_PRED>
-

>  <WATER_SOLUBILITY_MOL/L_TEST_PRED>
-

>  <ATMOSPHERIC_HYDROXYLATION_RATE_(AOH)_CM3/MOLECULE*SEC_OPERA_PRED>
1.72E-11

>  <BIOCONCENTRATION_FACTOR_OPERA_PRED>
3.16575

>  <BIODEGRADATION_HALF_LIFE_DAYS_DAYS_OPERA_PRED>
3.33777

>  <BOILING_POINT_DEGC_OPERA_PRED>
333.419

>  <HENRYS_LAW_ATM-M3/MOLE_OPERA_PRED>
3.58E-10

>  <OPERA_KM_DAYS_OPERA_PRED>
0.297835

>  <OCTANOL_AIR_PARTITION_COEFF_LOGKOA_OPERA_PRED>
10.5062

>  <SOIL_ADSORPTION_COEFFICIENT_KOC_L/KG_OPERA_PRED>
167.954

>  <OCTANOL_WATER_PARTITION_LOGP_OPERA_PRED>
2.69977

>  <MELTING_POINT_DEGC_OPERA_PRED>
79.1184

>  <VAPOR_PRESSURE_MMHG_OPERA_PRED>
3.55E-06

>  <WATER_SOLUBILITY_MOL/L_OPERA_PRED>
0.000239789

>  <Shape Index>
0.55556

>  <Molecular Flexibility>
0.51243

>  <Molecular Complexity>
0.72049

>  <Electronegative Atoms>
7

>  <Stereo Centers>
1

>  <Rotatable Bonds>
6

>  <Rings Closures>
1

>  <Aromatic Rings>
1

>  <Aromatic Atoms>
6

>  <Amides>
0

>  <Amines>
0

>  <Aromatic Nitrogens>
0

>  <Shape Index 2>
0.55556

>  <Molecular Flexibility 2>
0.51243

>  <Molecular Complexity 2>
0.72049

>  <Non-C/H Atoms>
7

>  <Electronegative Atoms 2>
7

>  <Stereo Centers 2>
1

>  <Rotatable Bonds 2>
6

>  <Rings Closures 2>
1

>  <Aromatic Rings 2>
1

>  <Aromatic Atoms 2>
6

>  <sp3-Atoms>
9

>  <Amides 2>
0

>  <Amines 2>
0

>  <Aromatic Nitrogens 2>
0

>  <Basic Nitrogens>
0

$$$$
Dimethomorph
Actelion Java MolfileCreator 2.0

  0  0  0  0  0  0              0 V3000
M  V30 BEGIN CTAB
M  V30 COUNTS 27 29 0 0 0
M  V30 BEGIN ATOM
M  V30 1 Cl 0.0 0.0 0.0 0
M  V30 2 C -1.3052 0.7525 0.0 0
M  V30 3 C -1.3169 2.2576 0.0 0
M  V30 4 C -2.6104 0.0235 0.0 0
M  V30 5 C -2.6221 3.0102 0.0 0
M  V30 6 C -3.9156 0.776 0.0 0
M  V30 7 C -3.9274 2.2811 0.0 0
M  V30 8 C -5.2326 3.0337 0.0 0
M  V30 9 C -5.2443 4.5388 0.0 0
M  V30 10 C -6.5378 2.3047 0.0 0
M  V30 11 C -3.9626 5.2914 0.0 0
M  V30 12 C -6.5496 5.2914 0.0 0
M  V30 13 C -7.843 3.0572 0.0 0
M  V30 14 C -3.9744 6.7965 0.0 0
M  V30 15 C -6.5613 6.7965 0.0 0
M  V30 16 O -7.8548 4.5623 0.0 0
M  V30 17 N -9.1482 2.3282 0.0 0
M  V30 18 O -2.6927 7.5491 0.0 0
M  V30 19 C -5.2796 7.5491 0.0 0
M  V30 20 C -10.4535 3.0807 0.0 0
M  V30 21 C -9.16 0.8466 0.0 0
M  V30 22 C -2.7045 9.0542 0.0 0
M  V30 23 O -5.2914 9.0542 0.0 0
M  V30 24 C -11.7587 2.3517 0.0 0
M  V30 25 C -10.4652 0.1175 0.0 0
M  V30 26 C -6.5966 9.8067 0.0 0
M  V30 27 O -11.7704 0.8701 0.0 0
M  V30 END ATOM
M  V30 BEGIN BOND
M  V30 1 1 1 2
M  V30 2 2 2 3
M  V30 3 1 2 4
M  V30 4 1 3 5
M  V30 5 2 4 6
M  V30 6 2 5 7
M  V30 7 1 7 8
M  V30 8 1 8 9
M  V30 9 2 8 10 CFG=2
M  V30 10 2 9 11
M  V30 11 1 9 12
M  V30 12 1 10 13
M  V30 13 1 11 14
M  V30 14 2 12 15
M  V30 15 2 13 16
M  V30 16 1 13 17
M  V30 17 1 14 18
M  V30 18 2 14 19
M  V30 19 1 17 20
M  V30 20 1 17 21
M  V30 21 1 18 22
M  V30 22 1 19 23
M  V30 23 1 20 24
M  V30 24 1 21 25
M  V30 25 1 23 26
M  V30 26 1 24 27
M  V30 27 1 6 7
M  V30 28 1 15 19
M  V30 29 1 25 27
M  V30 END BOND
M  V30 END CTAB
M  END
>  <Molecule Name>
Dimethomorph

>  <Order (spectra)>
245

>  <NAME>
Dimethomorph

>  <Molecular Formula>
C21H22NO4Cl

>  <Monoisotopic Mass>
387.123736

>  <SMILES>
COC1=C(OC)C=C(C=C1)C(=CC(=O)N1CCOCC1)C1=CC=C(Cl)C=C1

>  <InChI>
InChI=1S/C21H22ClNO4/c1-25-19-8-5-16(13-20(19)26-2)18(15-3-6-17(22)7-4-15)14-21(24)23-9-11-27-12-10-23/h3-8,13-14H,9-12H2,1-2H3

>  <InChIKey>
QNBTYORWCCMPQP-UHFFFAOYSA-N

>  <Kingdom>
Organic compounds

>  <Superclass>
Benzenoids

>  <Class>
Benzene and substituted derivatives

>  <Subclass>
Diphenylmethanes

>  <Parent Level 1>
Diphenylmethanes

>  <Parent Level 2>


>  <Parent Level 3>


>  <cLogP>
2.6778

>  <cLogS>
-3.673

>  <Druglikeness>
1.9364

>  <NP-class probability>
0.03

>  <SmilesFragFp 3>


>  <MS_READY_SMILES>
COC1=C(OC)C=C(C=C1)C(=CC(=O)N1CCOCC1)C1=CC=C(Cl)C=C1

>  <MS_READY_InChI>
InChI=1S/C21H22ClNO4/c1-25-19-8-5-16(13-20(19)26-2)18(15-3-6-17(22)7-4-15)14-21(24)23-9-11-27-12-10-23/h3-8,13-14H,9-12H2,1-2H3

>  <QSAR_READY_SMILES>
COC1=C(OC)C=C(C=C1)C(=CC(=O)N1CCOCC1)C1=CC=C(Cl)C=C1

>  <QSAR_READY_InChI>
InChI=1S/C21H22ClNO4/c1-25-19-8-5-16(13-20(19)26-2)18(15-3-6-17(22)7-4-15)14-21(24)23-9-11-27-12-10-23/h3-8,13-14H,9-12H2,1-2H3

>  <DTXSID>
DTXSID7034545

>  <DTXCID>
DTXCID5014545

>  <CASRN>
110488-70-5

>  <EXPOCAST_MEDIAN_EXPOSURE_PREDICTION_MG/KG-BW/DAY>
1.91E-07

>  <BIOCONCENTRATION_FACTOR_TEST_PRED>
58.6138

>  <BOILING_POINT_DEGC_TEST_PRED>
464.844

>  <48HR_DAPHNIA_LC50_MOL/L_TEST_PRED>
5.13E-05

>  <DENSITY_G/CM^3_TEST_PRED>
1.211

>  <DEVTOX_TEST_PRED>
0.901

>  <96HR_FATHEAD_MINNOW_MOL/L_TEST_PRED>
1.47E-06

>  <FLASH_POINT_DEGC_TEST_PRED>
248.586

>  <MELTING_POINT_DEGC_TEST_PRED>
129.886

>  <AMES_MUTAGENICITY_TEST_PRED>
0.113

>  <ORAL_RAT_LD50_MOL/KG_TEST_PRED>
0.00331131

>  <SURFACE_TENSION_DYN/CM_TEST_PRED>
-

>  <THERMAL_CONDUCTIVITY_MW/(M*K)_TEST_PRED>
-

>  <TETRAHYMENA_PYRIFORMIS_IGC50_MOL/L_TEST_PRED>
5.50E-05

>  <VISCOSITY_CP_CP_TEST_PRED>
110.154

>  <VAPOR_PRESSURE_MMHG_TEST_PRED>
3.33E-09

>  <WATER_SOLUBILITY_MOL/L_TEST_PRED>
2.51E-05

>  <ATMOSPHERIC_HYDROXYLATION_RATE_(AOH)_CM3/MOLECULE*SEC_OPERA_PRED>
2.04E-11

>  <BIOCONCENTRATION_FACTOR_OPERA_PRED>
77.4658

>  <BIODEGRADATION_HALF_LIFE_DAYS_DAYS_OPERA_PRED>
4.91337

>  <BOILING_POINT_DEGC_OPERA_PRED>
418.338

>  <HENRYS_LAW_ATM-M3/MOLE_OPERA_PRED>
4.33E-09

>  <OPERA_KM_DAYS_OPERA_PRED>
1.2743

>  <OCTANOL_AIR_PARTITION_COEFF_LOGKOA_OPERA_PRED>
11.7089

>  <SOIL_ADSORPTION_COEFFICIENT_KOC_L/KG_OPERA_PRED>
2577.57

>  <OCTANOL_WATER_PARTITION_LOGP_OPERA_PRED>
2.68022

>  <MELTING_POINT_DEGC_OPERA_PRED>
147.942

>  <VAPOR_PRESSURE_MMHG_OPERA_PRED>
7.36E-09

>  <WATER_SOLUBILITY_MOL/L_OPERA_PRED>
7.36E-05

>  <Shape Index>
0.48148

>  <Molecular Flexibility>
0.44848

>  <Molecular Complexity>
0.79548

>  <Electronegative Atoms>
6

>  <Stereo Centers>
0

>  <Rotatable Bonds>
5

>  <Rings Closures>
3

>  <Aromatic Rings>
2

>  <Aromatic Atoms>
12

>  <Amides>
1

>  <Amines>
0

>  <Aromatic Nitrogens>
0

>  <Shape Index 2>
0.48148

>  <Molecular Flexibility 2>
0.44848

>  <Molecular Complexity 2>
0.79548

>  <Non-C/H Atoms>
6

>  <Electronegative Atoms 2>
6

>  <Stereo Centers 2>
0

>  <Rotatable Bonds 2>
5

>  <Rings Closures 2>
3

>  <Aromatic Rings 2>
2

>  <Aromatic Atoms 2>
12

>  <sp3-Atoms>
9

>  <Amides 2>
1

>  <Amines 2>
0

>  <Aromatic Nitrogens 2>
0

>  <Basic Nitrogens>
0

$$$$
Ethiofencarb
Actelion Java MolfileCreator 2.0

  0  0  0  0  0  0              0 V3000
M  V30 BEGIN CTAB
M  V30 COUNTS 15 15 0 0 0
M  V30 BEGIN ATOM
M  V30 1 S 0.0 0.0 0.0 0
M  V30 2 C 1.2926 0.7589 0.0 0
M  V30 3 C -1.3163 0.7589 0.0 0
M  V30 4 C 2.5852 0.0118 0.0 0
M  V30 5 C -2.6326 0.0118 0.0 0
M  V30 6 C 2.5733 -1.4823 0.0 0
M  V30 7 C 3.8778 0.7708 0.0 0
M  V30 8 O 1.257 -2.2175 0.0 0
M  V30 9 C 3.8659 -2.2294 0.0 0
M  V30 10 C 5.1704 0.0237 0.0 0
M  V30 11 C 1.2451 -3.7117 0.0 0
M  V30 12 C 5.1585 -1.4704 0.0 0
M  V30 13 O 2.5377 -4.4588 0.0 0
M  V30 14 N -0.0711 -4.4588 0.0 0
M  V30 15 C -0.083 -5.953 0.0 0
M  V30 END ATOM
M  V30 BEGIN BOND
M  V30 1 1 1 2
M  V30 2 1 1 3
M  V30 3 1 2 4
M  V30 4 1 3 5
M  V30 5 2 4 6
M  V30 6 1 4 7
M  V30 7 1 6 8
M  V30 8 1 6 9
M  V30 9 2 7 10
M  V30 10 1 8 11
M  V30 11 2 9 12
M  V30 12 2 11 13
M  V30 13 1 11 14
M  V30 14 1 14 15
M  V30 15 1 10 12
M  V30 END BOND
M  V30 END CTAB
M  END
>  <Molecule Name>
Ethiofencarb

>  <Order (spectra)>
249

>  <NAME>
Ethiofencarb

>  <Molecular Formula>
C11H15NO2S

>  <Monoisotopic Mass>
225.082349

>  <SMILES>
CCSCC1=C(OC(=O)NC)C=CC=C1

>  <InChI>
InChI=1S/C11H15NO2S/c1-3-15-8-9-6-4-5-7-10(9)14-11(13)12-2/h4-7H,3,8H2,1-2H3,(H,12,13)

>  <InChIKey>
HEZNVIYQEUHLNI-UHFFFAOYSA-N

>  <Kingdom>
Organic compounds

>  <Superclass>
Benzenoids

>  <Class>
Benzene and substituted derivatives

>  <Subclass>
Phenyl methylcarbamates

>  <Parent Level 1>
Phenyl methylcarbamates

>  <Parent Level 2>


>  <Parent Level 3>


>  <cLogP>
2.3263

>  <cLogS>
-3.419

>  <Druglikeness>
-2.5123

>  <NP-class probability>
0.26

>  <SmilesFragFp 3>


>  <MS_READY_SMILES>
CCSCC1=C(OC(=O)NC)C=CC=C1

>  <MS_READY_InChI>
InChI=1S/C11H15NO2S/c1-3-15-8-9-6-4-5-7-10(9)14-11(13)12-2/h4-7H,3,8H2,1-2H3,(H,12,13)

>  <QSAR_READY_SMILES>
CCSCC1=C(OC(=O)NC)C=CC=C1

>  <QSAR_READY_InChI>
InChI=1S/C11H15NO2S/c1-3-15-8-9-6-4-5-7-10(9)14-11(13)12-2/h4-7H,3,8H2,1-2H3,(H,12,13)

>  <DTXSID>
DTXSID3037545

>  <DTXCID>
DTXCID1017545

>  <CASRN>
29973-13-5

>  <EXPOCAST_MEDIAN_EXPOSURE_PREDICTION_MG/KG-BW/DAY>
6.46E-07

>  <BIOCONCENTRATION_FACTOR_TEST_PRED>
6.4121

>  <BOILING_POINT_DEGC_TEST_PRED>
326.163

>  <48HR_DAPHNIA_LC50_MOL/L_TEST_PRED>
1.41E-05

>  <DENSITY_G/CM^3_TEST_PRED>
1.113

>  <DEVTOX_TEST_PRED>
0.385

>  <96HR_FATHEAD_MINNOW_MOL/L_TEST_PRED>
1.67E-05

>  <FLASH_POINT_DEGC_TEST_PRED>
160.844

>  <MELTING_POINT_DEGC_TEST_PRED>
71.868

>  <AMES_MUTAGENICITY_TEST_PRED>
0.536

>  <ORAL_RAT_LD50_MOL/KG_TEST_PRED>
0.000755092

>  <SURFACE_TENSION_DYN/CM_TEST_PRED>
-

>  <THERMAL_CONDUCTIVITY_MW/(M*K)_TEST_PRED>
-

>  <TETRAHYMENA_PYRIFORMIS_IGC50_MOL/L_TEST_PRED>
-

>  <VISCOSITY_CP_CP_TEST_PRED>
36.0579

>  <VAPOR_PRESSURE_MMHG_TEST_PRED>
5.77E-06

>  <WATER_SOLUBILITY_MOL/L_TEST_PRED>
0.00246604

>  <ATMOSPHERIC_HYDROXYLATION_RATE_(AOH)_CM3/MOLECULE*SEC_OPERA_PRED>
1.42E-11

>  <BIOCONCENTRATION_FACTOR_OPERA_PRED>
7.47265

>  <BIODEGRADATION_HALF_LIFE_DAYS_DAYS_OPERA_PRED>
3.52829

>  <BOILING_POINT_DEGC_OPERA_PRED>
290.635

>  <HENRYS_LAW_ATM-M3/MOLE_OPERA_PRED>
3.09E-09

>  <OPERA_KM_DAYS_OPERA_PRED>
0.0953524

>  <OCTANOL_AIR_PARTITION_COEFF_LOGKOA_OPERA_PRED>
9.59837

>  <SOIL_ADSORPTION_COEFFICIENT_KOC_L/KG_OPERA_PRED>
123.851

>  <OCTANOL_WATER_PARTITION_LOGP_OPERA_PRED>
2.0415

>  <MELTING_POINT_DEGC_OPERA_PRED>
34.0591

>  <VAPOR_PRESSURE_MMHG_OPERA_PRED>
6.99E-06

>  <WATER_SOLUBILITY_MOL/L_OPERA_PRED>
0.00817811

>  <Shape Index>
0.66667

>  <Molecular Flexibility>
0.44631

>  <Molecular Complexity>
0.62778

>  <Electronegative Atoms>
4

>  <Stereo Centers>
0

>  <Rotatable Bonds>
5

>  <Rings Closures>
1

>  <Aromatic Rings>
1

>  <Aromatic Atoms>
6

>  <Amides>
1

>  <Amines>
0

>  <Aromatic Nitrogens>
0

>  <Shape Index 2>
0.66667

>  <Molecular Flexibility 2>
0.44631

>  <Molecular Complexity 2>
0.62778

>  <Non-C/H Atoms>
4

>  <Electronegative Atoms 2>
4

>  <Stereo Centers 2>
0

>  <Rotatable Bonds 2>
5

>  <Rings Closures 2>
1

>  <Aromatic Rings 2>
1

>  <Aromatic Atoms 2>
6

>  <sp3-Atoms>
6

>  <Amides 2>
1

>  <Amines 2>
0

>  <Aromatic Nitrogens 2>
0

>  <Basic Nitrogens>
0

$$$$
Methiocarb
Actelion Java MolfileCreator 2.0

  0  0  0  0  0  0              0 V3000
M  V30 BEGIN CTAB
M  V30 COUNTS 15 15 0 0 0
M  V30 BEGIN ATOM
M  V30 1 S 0.0 0.0 0.0 0
M  V30 2 C -1.3058 0.7647 0.0 0
M  V30 3 C 1.2823 0.7529 0.0 0
M  V30 4 C -1.3176 2.2705 0.0 0
M  V30 5 C -2.6117 0.0235 0.0 0
M  V30 6 C -2.6235 3.0235 0.0 0
M  V30 7 C -0.0352 3.0235 0.0 0
M  V30 8 C -3.9176 0.7764 0.0 0
M  V30 9 C -2.6235 -1.4588 0.0 0
M  V30 10 C -3.9294 2.2823 0.0 0
M  V30 11 O -5.2353 3.0353 0.0 0
M  V30 12 C -6.5412 2.2941 0.0 0
M  V30 13 O -6.5529 0.8117 0.0 0
M  V30 14 N -7.847 3.047 0.0 0
M  V30 15 C -9.1529 2.3058 0.0 0
M  V30 END ATOM
M  V30 BEGIN BOND
M  V30 1 1 1 2
M  V30 2 1 1 3
M  V30 3 2 2 4
M  V30 4 1 2 5
M  V30 5 1 4 6
M  V30 6 1 4 7
M  V30 7 2 5 8
M  V30 8 1 5 9
M  V30 9 2 6 10
M  V30 10 1 10 11
M  V30 11 1 11 12
M  V30 12 2 12 13
M  V30 13 1 12 14
M  V30 14 1 14 15
M  V30 15 1 8 10
M  V30 END BOND
M  V30 END CTAB
M  END
>  <Molecule Name>
Methiocarb

>  <Order (spectra)>
252

>  <NAME>
Methiocarb

>  <Molecular Formula>
C11H15NO2S

>  <Monoisotopic Mass>
225.082349

>  <SMILES>
CNC(=O)OC1=CC(C)=C(SC)C(C)=C1

>  <InChI>
InChI=1S/C11H15NO2S/c1-7-5-9(14-11(13)12-3)6-8(2)10(7)15-4/h5-6H,1-4H3,(H,12,13)

>  <InChIKey>
YFBPRJGDJKVWAH-UHFFFAOYSA-N

>  <Kingdom>
Organic compounds

>  <Superclass>
Benzenoids

>  <Class>
Benzene and substituted derivatives

>  <Subclass>
Phenoxy compounds

>  <Parent Level 1>
Phenoxy compounds

>  <Parent Level 2>


>  <Parent Level 3>


>  <cLogP>
2.5403

>  <cLogS>
-3.631

>  <Druglikeness>
-2.8917

>  <NP-class probability>
0.31

>  <SmilesFragFp 3>


>  <MS_READY_SMILES>
CNC(=O)OC1=CC(C)=C(SC)C(C)=C1

>  <MS_READY_InChI>
InChI=1S/C11H15NO2S/c1-7-5-9(14-11(13)12-3)6-8(2)10(7)15-4/h5-6H,1-4H3,(H,12,13)

>  <QSAR_READY_SMILES>
CNC(=O)OC1=CC(C)=C(SC)C(C)=C1

>  <QSAR_READY_InChI>
InChI=1S/C11H15NO2S/c1-7-5-9(14-11(13)12-3)6-8(2)10(7)15-4/h5-6H,1-4H3,(H,12,13)

>  <DTXSID>
DTXSID3032626

>  <DTXCID>
DTXCID1012626

>  <CASRN>
2032-65-7

>  <EXPOCAST_MEDIAN_EXPOSURE_PREDICTION_MG/KG-BW/DAY>
1.97E-07

>  <BIOCONCENTRATION_FACTOR_TEST_PRED>
9.12011

>  <BOILING_POINT_DEGC_TEST_PRED>
293.951

>  <48HR_DAPHNIA_LC50_MOL/L_TEST_PRED>
5.37E-06

>  <DENSITY_G/CM^3_TEST_PRED>
1.179

>  <DEVTOX_TEST_PRED>
0.742

>  <96HR_FATHEAD_MINNOW_MOL/L_TEST_PRED>
1.66E-05

>  <FLASH_POINT_DEGC_TEST_PRED>
160.371

>  <MELTING_POINT_DEGC_TEST_PRED>
105.453

>  <AMES_MUTAGENICITY_TEST_PRED>
0.769

>  <ORAL_RAT_LD50_MOL/KG_TEST_PRED>
0.000618016

>  <SURFACE_TENSION_DYN/CM_TEST_PRED>
-

>  <THERMAL_CONDUCTIVITY_MW/(M*K)_TEST_PRED>
-

>  <TETRAHYMENA_PYRIFORMIS_IGC50_MOL/L_TEST_PRED>
-

>  <VISCOSITY_CP_CP_TEST_PRED>
-

>  <VAPOR_PRESSURE_MMHG_TEST_PRED>
1.36E-05

>  <WATER_SOLUBILITY_MOL/L_TEST_PRED>
0.000530884

>  <ATMOSPHERIC_HYDROXYLATION_RATE_(AOH)_CM3/MOLECULE*SEC_OPERA_PRED>
1.45E-11

>  <BIOCONCENTRATION_FACTOR_OPERA_PRED>
34.1692

>  <BIODEGRADATION_HALF_LIFE_DAYS_DAYS_OPERA_PRED>
3.5316

>  <BOILING_POINT_DEGC_OPERA_PRED>
291.275

>  <HENRYS_LAW_ATM-M3/MOLE_OPERA_PRED>
1.18E-09

>  <OPERA_KM_DAYS_OPERA_PRED>
0.0958216

>  <OCTANOL_AIR_PARTITION_COEFF_LOGKOA_OPERA_PRED>
9.5407

>  <SOIL_ADSORPTION_COEFFICIENT_KOC_L/KG_OPERA_PRED>
208.272

>  <OCTANOL_WATER_PARTITION_LOGP_OPERA_PRED>
2.91751

>  <MELTING_POINT_DEGC_OPERA_PRED>
119.694

>  <VAPOR_PRESSURE_MMHG_OPERA_PRED>
2.73E-07

>  <WATER_SOLUBILITY_MOL/L_OPERA_PRED>
0.00010167

>  <Shape Index>
0.66667

>  <Molecular Flexibility>
0.37996

>  <Molecular Complexity>
0.63799

>  <Electronegative Atoms>
4

>  <Stereo Centers>
0

>  <Rotatable Bonds>
3

>  <Rings Closures>
1

>  <Aromatic Rings>
1

>  <Aromatic Atoms>
6

>  <Amides>
1

>  <Amines>
0

>  <Aromatic Nitrogens>
0

>  <Shape Index 2>
0.66667

>  <Molecular Flexibility 2>
0.37996

>  <Molecular Complexity 2>
0.63799

>  <Non-C/H Atoms>
4

>  <Electronegative Atoms 2>
4

>  <Stereo Centers 2>
0

>  <Rotatable Bonds 2>
3

>  <Rings Closures 2>
1

>  <Aromatic Rings 2>
1

>  <Aromatic Atoms 2>
6

>  <sp3-Atoms>
6

>  <Amides 2>
1

>  <Amines 2>
0

>  <Aromatic Nitrogens 2>
0

>  <Basic Nitrogens>
0

$$$$
Iprovalicarb
Actelion Java MolfileCreator 2.0

  0  0  0  0  0  0              0 V3000
M  V30 BEGIN CTAB
M  V30 COUNTS 23 23 0 0 0
M  V30 BEGIN ATOM
M  V30 1 O 0.0 0.0 0.0 0
M  V30 2 C -0.0117 1.5094 0.0 0
M  V30 3 O 1.2735 2.2641 0.0 0
M  V30 4 N -1.3207 2.2641 0.0 0
M  V30 5 C 2.5589 1.5329 0.0 0
M  V30 6 C -2.6296 1.5329 0.0 0 CFG=2
M  V30 7 C 3.8442 2.2877 0.0 0
M  V30 8 C 2.5471 0.0471 0.0 0
M  V30 9 C -3.9386 2.2877 0.0 0
M  V30 10 C -2.6414 0.0471 0.0 0
M  V30 11 O -3.9504 3.7971 0.0 0
M  V30 12 N -5.2475 1.5565 0.0 0
M  V30 13 C -3.9504 -0.6839 0.0 0
M  V30 14 C -1.3561 -0.6839 0.0 0
M  V30 15 C -6.5565 2.3112 0.0 0
M  V30 16 C -6.5683 3.8207 0.0 0
M  V30 17 C -7.8654 1.5801 0.0 0
M  V30 18 C -5.2829 4.5754 0.0 0
M  V30 19 C -7.8772 4.5754 0.0 0
M  V30 20 C -5.2947 6.0848 0.0 0
M  V30 21 C -7.889 6.0848 0.0 0
M  V30 22 C -6.6036 6.8395 0.0 0
M  V30 23 C -6.6154 8.3489 0.0 0
M  V30 END ATOM
M  V30 BEGIN BOND
M  V30 1 2 1 2
M  V30 2 1 2 3
M  V30 3 1 2 4
M  V30 4 1 3 5
M  V30 5 1 6 4 CFG=1
M  V30 6 1 5 7
M  V30 7 1 5 8
M  V30 8 1 6 9
M  V30 9 1 6 10
M  V30 10 2 9 11
M  V30 11 1 9 12
M  V30 12 1 10 13
M  V30 13 1 10 14
M  V30 14 1 12 15
M  V30 15 1 15 16
M  V30 16 1 15 17
M  V30 17 2 16 18
M  V30 18 1 16 19
M  V30 19 1 18 20
M  V30 20 2 19 21
M  V30 21 2 20 22
M  V30 22 1 22 23
M  V30 23 1 21 22
M  V30 END BOND
M  V30 BEGIN COLLECTION
M  V30 MDLV30/STEABS ATOMS=(1 6)
M  V30 END COLLECTION
M  V30 END CTAB
M  END
>  <Molecule Name>
Iprovalicarb

>  <Order (spectra)>
254

>  <NAME>
Iprovalicarb

>  <Molecular Formula>
C18H28N2O3

>  <Monoisotopic Mass>
320.209993

>  <SMILES>
CC(C)OC(=O)N[C@@H](C(C)C)C(=O)NC(C)C1=CC=C(C)C=C1

>  <InChI>
InChI=1S/C18H28N2O3/c1-11(2)16(20-18(22)23-12(3)4)17(21)19-14(6)15-9-7-13(5)8-10-15/h7-12,14,16H,1-6H3,(H,19,21)(H,20,22)/t14?,16-/m0/s1

>  <InChIKey>
NWUWYYSKZYIQAE-WMCAAGNKSA-N

>  <Kingdom>
Organic compounds

>  <Superclass>
Benzenoids

>  <Class>
Benzene and substituted derivatives

>  <Subclass>
Toluenes

>  <Parent Level 1>
Toluenes

>  <Parent Level 2>


>  <Parent Level 3>


>  <cLogP>
2.7878

>  <cLogS>
-3.757

>  <Druglikeness>
-21.707

>  <NP-class probability>
0.08

>  <SmilesFragFp 3>


>  <MS_READY_SMILES>
CC(C)OC(=O)NC(C(C)C)C(=O)NC(C)C1=CC=C(C)C=C1

>  <MS_READY_InChI>
InChI=1S/C18H28N2O3/c1-11(2)16(20-18(22)23-12(3)4)17(21)19-14(6)15-9-7-13(5)8-10-15/h7-12,14,16H,1-6H3,(H,19,21)(H,20,22)

>  <QSAR_READY_SMILES>
CC(C)OC(=O)NC(C(C)C)C(=O)NC(C)C1=CC=C(C)C=C1

>  <QSAR_READY_InChI>
InChI=1S/C18H28N2O3/c1-11(2)16(20-18(22)23-12(3)4)17(21)19-14(6)15-9-7-13(5)8-10-15/h7-12,14,16H,1-6H3,(H,19,21)(H,20,22)

>  <DTXSID>
DTXSID0047662

>  <DTXCID>
DTXCID8027662

>  <CASRN>
140923-17-7

>  <EXPOCAST_MEDIAN_EXPOSURE_PREDICTION_MG/KG-BW/DAY>
3.39E-07

>  <BIOCONCENTRATION_FACTOR_TEST_PRED>
6.15177

>  <BOILING_POINT_DEGC_TEST_PRED>
385.159

>  <48HR_DAPHNIA_LC50_MOL/L_TEST_PRED>
6.15E-06

>  <DENSITY_G/CM^3_TEST_PRED>
1.008

>  <DEVTOX_TEST_PRED>
0.74

>  <96HR_FATHEAD_MINNOW_MOL/L_TEST_PRED>
4.88E-06

>  <FLASH_POINT_DEGC_TEST_PRED>
198.044

>  <MELTING_POINT_DEGC_TEST_PRED>
98.724

>  <AMES_MUTAGENICITY_TEST_PRED>
0.236

>  <ORAL_RAT_LD50_MOL/KG_TEST_PRED>
0.00106905

>  <SURFACE_TENSION_DYN/CM_TEST_PRED>
-

>  <THERMAL_CONDUCTIVITY_MW/(M*K)_TEST_PRED>
-

>  <TETRAHYMENA_PYRIFORMIS_IGC50_MOL/L_TEST_PRED>
-

>  <VISCOSITY_CP_CP_TEST_PRED>
195.884

>  <VAPOR_PRESSURE_MMHG_TEST_PRED>
7.19E-09

>  <WATER_SOLUBILITY_MOL/L_TEST_PRED>
0.000591562

>  <ATMOSPHERIC_HYDROXYLATION_RATE_(AOH)_CM3/MOLECULE*SEC_OPERA_PRED>
2.03E-11

>  <BIOCONCENTRATION_FACTOR_OPERA_PRED>
23.333

>  <BIODEGRADATION_HALF_LIFE_DAYS_DAYS_OPERA_PRED>
4.52501

>  <BOILING_POINT_DEGC_OPERA_PRED>
291.339

>  <HENRYS_LAW_ATM-M3/MOLE_OPERA_PRED>
2.79E-10

>  <OPERA_KM_DAYS_OPERA_PRED>
0.210443

>  <OCTANOL_AIR_PARTITION_COEFF_LOGKOA_OPERA_PRED>
9.31567

>  <SOIL_ADSORPTION_COEFFICIENT_KOC_L/KG_OPERA_PRED>
1539.43

>  <OCTANOL_WATER_PARTITION_LOGP_OPERA_PRED>
2.63712

>  <MELTING_POINT_DEGC_OPERA_PRED>
110.744

>  <VAPOR_PRESSURE_MMHG_OPERA_PRED>
6.13E-09

>  <WATER_SOLUBILITY_MOL/L_OPERA_PRED>
5.52E-05

>  <Shape Index>
0.6087

>  <Molecular Flexibility>
0.54631

>  <Molecular Complexity>
0.66348

>  <Electronegative Atoms>
5

>  <Stereo Centers>
2

>  <Rotatable Bonds>
7

>  <Rings Closures>
1

>  <Aromatic Rings>
1

>  <Aromatic Atoms>
6

>  <Amides>
2

>  <Amines>
0

>  <Aromatic Nitrogens>
0

>  <Shape Index 2>
0.6087

>  <Molecular Flexibility 2>
0.54631

>  <Molecular Complexity 2>
0.66348

>  <Non-C/H Atoms>
5

>  <Electronegative Atoms 2>
5

>  <Stereo Centers 2>
2

>  <Rotatable Bonds 2>
7

>  <Rings Closures 2>
1

>  <Aromatic Rings 2>
1

>  <Aromatic Atoms 2>
6

>  <sp3-Atoms>
11

>  <Amides 2>
2

>  <Amines 2>
0

>  <Aromatic Nitrogens 2>
0

>  <Basic Nitrogens>
0

$$$$
Propham
Actelion Java MolfileCreator 2.0

  0  0  0  0  0  0              0 V3000
M  V30 BEGIN CTAB
M  V30 COUNTS 13 13 0 0 0
M  V30 BEGIN ATOM
M  V30 1 O 0.0 0.0 0.0 0
M  V30 2 C -0.0118 -1.4897 0.0 0
M  V30 3 O -1.3241 -2.2345 0.0 0
M  V30 4 N 1.2769 -2.2345 0.0 0
M  V30 5 C -2.6365 -1.4778 0.0 0
M  V30 6 C 2.5656 -1.4778 0.0 0
M  V30 7 C -2.6483 0.0354 0.0 0
M  V30 8 C -3.9489 -2.2227 0.0 0
M  V30 9 C 3.8543 -2.2109 0.0 0
M  V30 10 C 2.5538 0.0354 0.0 0
M  V30 11 C 5.143 -1.4542 0.0 0
M  V30 12 C 3.8425 0.7921 0.0 0
M  V30 13 C 5.1312 0.0591 0.0 0
M  V30 END ATOM
M  V30 BEGIN BOND
M  V30 1 2 1 2
M  V30 2 1 2 3
M  V30 3 1 2 4
M  V30 4 1 3 5
M  V30 5 1 4 6
M  V30 6 1 5 7
M  V30 7 1 5 8
M  V30 8 2 6 9
M  V30 9 1 6 10
M  V30 10 1 9 11
M  V30 11 2 10 12
M  V30 12 2 11 13
M  V30 13 1 12 13
M  V30 END BOND
M  V30 END CTAB
M  END
>  <Molecule Name>
Propham

>  <Order (spectra)>
255

>  <NAME>
Propham

>  <Molecular Formula>
C10H13NO2

>  <Monoisotopic Mass>
179.094629

>  <SMILES>
CC(C)OC(=O)NC1=CC=CC=C1

>  <InChI>
InChI=1S/C10H13NO2/c1-8(2)13-10(12)11-9-6-4-3-5-7-9/h3-8H,1-2H3,(H,11,12)

>  <InChIKey>
VXPLXMJHHKHSOA-UHFFFAOYSA-N

>  <Kingdom>
Organic compounds

>  <Superclass>
Benzenoids

>  <Class>
Benzene and substituted derivatives

>  <Subclass>
Phenylcarbamic acid esters

>  <Parent Level 1>
Phenylcarbamic acid esters

>  <Parent Level 2>


>  <Parent Level 3>


>  <cLogP>
2.3321

>  <cLogS>
-2.951

>  <Druglikeness>
-16.213

>  <NP-class probability>
0.44

>  <SmilesFragFp 3>


>  <MS_READY_SMILES>
CC(C)OC(=O)NC1=CC=CC=C1

>  <MS_READY_InChI>
InChI=1S/C10H13NO2/c1-8(2)13-10(12)11-9-6-4-3-5-7-9/h3-8H,1-2H3,(H,11,12)

>  <QSAR_READY_SMILES>
CC(C)OC(=O)NC1=CC=CC=C1

>  <QSAR_READY_InChI>
InChI=1S/C10H13NO2/c1-8(2)13-10(12)11-9-6-4-3-5-7-9/h3-8H,1-2H3,(H,11,12)

>  <DTXSID>
DTXSID7020766

>  <DTXCID>
DTXCID70766

>  <CASRN>
122-42-9

>  <EXPOCAST_MEDIAN_EXPOSURE_PREDICTION_MG/KG-BW/DAY>
7.73E-06

>  <BIOCONCENTRATION_FACTOR_TEST_PRED>
5.08159

>  <BOILING_POINT_DEGC_TEST_PRED>
267.347

>  <48HR_DAPHNIA_LC50_MOL/L_TEST_PRED>
1.11E-05

>  <DENSITY_G/CM^3_TEST_PRED>
1.109

>  <DEVTOX_TEST_PRED>
0.789

>  <96HR_FATHEAD_MINNOW_MOL/L_TEST_PRED>
3.44E-05

>  <FLASH_POINT_DEGC_TEST_PRED>
119.822

>  <MELTING_POINT_DEGC_TEST_PRED>
56.463

>  <AMES_MUTAGENICITY_TEST_PRED>
0.538

>  <ORAL_RAT_LD50_MOL/KG_TEST_PRED>
0.00524807

>  <SURFACE_TENSION_DYN/CM_TEST_PRED>
-

>  <THERMAL_CONDUCTIVITY_MW/(M*K)_TEST_PRED>
-

>  <TETRAHYMENA_PYRIFORMIS_IGC50_MOL/L_TEST_PRED>
0.000445656

>  <VISCOSITY_CP_CP_TEST_PRED>
13.1522

>  <VAPOR_PRESSURE_MMHG_TEST_PRED>
0.000111944

>  <WATER_SOLUBILITY_MOL/L_TEST_PRED>
0.0021677

>  <ATMOSPHERIC_HYDROXYLATION_RATE_(AOH)_CM3/MOLECULE*SEC_OPERA_PRED>
1.26E-11

>  <BIOCONCENTRATION_FACTOR_OPERA_PRED>
12.7813

>  <BIODEGRADATION_HALF_LIFE_DAYS_DAYS_OPERA_PRED>
4.66419

>  <BOILING_POINT_DEGC_OPERA_PRED>
261.238

>  <HENRYS_LAW_ATM-M3/MOLE_OPERA_PRED>
2.06E-08

>  <OPERA_KM_DAYS_OPERA_PRED>
0.0879035

>  <OCTANOL_AIR_PARTITION_COEFF_LOGKOA_OPERA_PRED>
8.62089

>  <SOIL_ADSORPTION_COEFFICIENT_KOC_L/KG_OPERA_PRED>
67.6892

>  <OCTANOL_WATER_PARTITION_LOGP_OPERA_PRED>
2.60067

>  <MELTING_POINT_DEGC_OPERA_PRED>
87.1393

>  <VAPOR_PRESSURE_MMHG_OPERA_PRED>
0.00013988

>  <WATER_SOLUBILITY_MOL/L_OPERA_PRED>
0.00111268

>  <Shape Index>
0.69231

>  <Molecular Flexibility>
0.4518

>  <Molecular Complexity>
0.49929

>  <Electronegative Atoms>
3

>  <Stereo Centers>
0

>  <Rotatable Bonds>
3

>  <Rings Closures>
1

>  <Aromatic Rings>
1

>  <Aromatic Atoms>
6

>  <Amides>
1

>  <Amines>
0

>  <Aromatic Nitrogens>
0

>  <Shape Index 2>
0.69231

>  <Molecular Flexibility 2>
0.4518

>  <Molecular Complexity 2>
0.49929

>  <Non-C/H Atoms>
3

>  <Electronegative Atoms 2>
3

>  <Stereo Centers 2>
0

>  <Rotatable Bonds 2>
3

>  <Rings Closures 2>
1

>  <Aromatic Rings 2>
1

>  <Aromatic Atoms 2>
6

>  <sp3-Atoms>
4

>  <Amides 2>
1

>  <Amines 2>
0

>  <Aromatic Nitrogens 2>
0

>  <Basic Nitrogens>
0

$$$$
Thiobencarb
Actelion Java MolfileCreator 2.0

  0  0  0  0  0  0              0 V3000
M  V30 BEGIN CTAB
M  V30 COUNTS 16 16 0 0 0
M  V30 BEGIN ATOM
M  V30 1 Cl 0.0 0.0 0.0 0
M  V30 2 C -1.3043 0.752 0.0 0
M  V30 3 C -1.3161 2.2562 0.0 0
M  V30 4 C -2.6087 0.0117 0.0 0
M  V30 5 C -2.6205 3.0082 0.0 0
M  V30 6 C -3.9131 0.7638 0.0 0
M  V30 7 C -3.9248 2.2679 0.0 0
M  V30 8 C -5.2292 3.02 0.0 0
M  V30 9 S -6.5336 2.2797 0.0 0
M  V30 10 C -7.838 3.0318 0.0 0
M  V30 11 O -7.8497 4.5359 0.0 0
M  V30 12 N -9.1424 2.2914 0.0 0
M  V30 13 C -9.1541 0.8108 0.0 0
M  V30 14 C -10.4467 3.0435 0.0 0
M  V30 15 C -7.8732 0.0822 0.0 0
M  V30 16 C -11.7511 2.3032 0.0 0
M  V30 END ATOM
M  V30 BEGIN BOND
M  V30 1 1 1 2
M  V30 2 2 2 3
M  V30 3 1 2 4
M  V30 4 1 3 5
M  V30 5 2 4 6
M  V30 6 2 5 7
M  V30 7 1 7 8
M  V30 8 1 8 9
M  V30 9 1 9 10
M  V30 10 2 10 11
M  V30 11 1 10 12
M  V30 12 1 12 13
M  V30 13 1 12 14
M  V30 14 1 13 15
M  V30 15 1 14 16
M  V30 16 1 6 7
M  V30 END BOND
M  V30 END CTAB
M  END
>  <Molecule Name>
Thiobencarb

>  <Order (spectra)>
258

>  <NAME>
Thiobencarb

>  <Molecular Formula>
C12H16NOClS

>  <Monoisotopic Mass>
257.064111

>  <SMILES>
CCN(CC)C(=O)SCC1=CC=C(Cl)C=C1

>  <InChI>
InChI=1S/C12H16ClNOS/c1-3-14(4-2)12(15)16-9-10-5-7-11(13)8-6-10/h5-8H,3-4,9H2,1-2H3

>  <InChIKey>
QHTQREMOGMZHJV-UHFFFAOYSA-N

>  <Kingdom>
Organic compounds

>  <Superclass>
Benzenoids

>  <Class>
Benzene and substituted derivatives

>  <Subclass>
Halobenzenes

>  <Parent Level 1>
Chlorobenzenes

>  <Parent Level 2>


>  <Parent Level 3>


>  <cLogP>
3.4346

>  <cLogS>
-3.814

>  <Druglikeness>
2.0078

>  <NP-class probability>
0.06

>  <SmilesFragFp 3>


>  <MS_READY_SMILES>
CCN(CC)C(=O)SCC1=CC=C(Cl)C=C1

>  <MS_READY_InChI>
InChI=1S/C12H16ClNOS/c1-3-14(4-2)12(15)16-9-10-5-7-11(13)8-6-10/h5-8H,3-4,9H2,1-2H3

>  <QSAR_READY_SMILES>
CCN(CC)C(=O)SCC1=CC=C(Cl)C=C1

>  <QSAR_READY_InChI>
InChI=1S/C12H16ClNOS/c1-3-14(4-2)12(15)16-9-10-5-7-11(13)8-6-10/h5-8H,3-4,9H2,1-2H3

>  <DTXSID>
DTXSID6024337

>  <DTXCID>
DTXCID704337

>  <CASRN>
28249-77-6

>  <EXPOCAST_MEDIAN_EXPOSURE_PREDICTION_MG/KG-BW/DAY>
9.32E-07

>  <BIOCONCENTRATION_FACTOR_TEST_PRED>
25.0611

>  <BOILING_POINT_DEGC_TEST_PRED>
-

>  <48HR_DAPHNIA_LC50_MOL/L_TEST_PRED>
6.56E-06

>  <DENSITY_G/CM^3_TEST_PRED>
1.146

>  <DEVTOX_TEST_PRED>
0.403

>  <96HR_FATHEAD_MINNOW_MOL/L_TEST_PRED>
-

>  <FLASH_POINT_DEGC_TEST_PRED>
156.263

>  <MELTING_POINT_DEGC_TEST_PRED>
36.441

>  <AMES_MUTAGENICITY_TEST_PRED>
0.269

>  <ORAL_RAT_LD50_MOL/KG_TEST_PRED>
0.00574116

>  <SURFACE_TENSION_DYN/CM_TEST_PRED>
-

>  <THERMAL_CONDUCTIVITY_MW/(M*K)_TEST_PRED>
-

>  <TETRAHYMENA_PYRIFORMIS_IGC50_MOL/L_TEST_PRED>
-

>  <VISCOSITY_CP_CP_TEST_PRED>
-

>  <VAPOR_PRESSURE_MMHG_TEST_PRED>
0.000147571

>  <WATER_SOLUBILITY_MOL/L_TEST_PRED>
8.45E-05

>  <ATMOSPHERIC_HYDROXYLATION_RATE_(AOH)_CM3/MOLECULE*SEC_OPERA_PRED>
1.53E-11

>  <BIOCONCENTRATION_FACTOR_OPERA_PRED>
169.455

>  <BIODEGRADATION_HALF_LIFE_DAYS_DAYS_OPERA_PRED>
2.94631

>  <BOILING_POINT_DEGC_OPERA_PRED>
305.694

>  <HENRYS_LAW_ATM-M3/MOLE_OPERA_PRED>
1.95E-08

>  <OPERA_KM_DAYS_OPERA_PRED>
4.55274

>  <OCTANOL_AIR_PARTITION_COEFF_LOGKOA_OPERA_PRED>
9.60793

>  <SOIL_ADSORPTION_COEFFICIENT_KOC_L/KG_OPERA_PRED>
1860.99

>  <OCTANOL_WATER_PARTITION_LOGP_OPERA_PRED>
3.39983

>  <MELTING_POINT_DEGC_OPERA_PRED>
4.43802

>  <VAPOR_PRESSURE_MMHG_OPERA_PRED>
2.20E-05

>  <WATER_SOLUBILITY_MOL/L_OPERA_PRED>
0.00009182

>  <Shape Index>
0.6875

>  <Molecular Flexibility>
0.73621

>  <Molecular Complexity>
0.53395

>  <Electronegative Atoms>
4

>  <Stereo Centers>
0

>  <Rotatable Bonds>
5

>  <Rings Closures>
1

>  <Aromatic Rings>
1

>  <Aromatic Atoms>
6

>  <Amides>
1

>  <Amines>
0

>  <Aromatic Nitrogens>
0

>  <Shape Index 2>
0.6875

>  <Molecular Flexibility 2>
0.73621

>  <Molecular Complexity 2>
0.53395

>  <Non-C/H Atoms>
4

>  <Electronegative Atoms 2>
4

>  <Stereo Centers 2>
0

>  <Rotatable Bonds 2>
5

>  <Rings Closures 2>
1

>  <Aromatic Rings 2>
1

>  <Aromatic Atoms 2>
6

>  <sp3-Atoms>
6

>  <Amides 2>
1

>  <Amines 2>
0

>  <Aromatic Nitrogens 2>
0

>  <Basic Nitrogens>
0

$$$$
Isoprocarb
Actelion Java MolfileCreator 2.0

  0  0  0  0  0  0              0 V3000
M  V30 BEGIN CTAB
M  V30 COUNTS 14 14 0 0 0
M  V30 BEGIN ATOM
M  V30 1 O 0.0 0.0 0.0 0
M  V30 2 C -1.3154 -0.7465 0.0 0
M  V30 3 O -1.3272 -2.2397 0.0 0
M  V30 4 N -2.6308 0.0118 0.0 0
M  V30 5 C -0.0355 -2.9745 0.0 0
M  V30 6 C -2.6427 1.5287 0.0 0
M  V30 7 C -0.0474 -4.4677 0.0 0
M  V30 8 C 1.2561 -2.216 0.0 0
M  V30 9 C 1.2443 -5.2024 0.0 0
M  V30 10 C -1.3628 -5.2024 0.0 0
M  V30 11 C 2.5478 -2.9508 0.0 0
M  V30 12 C 2.536 -4.444 0.0 0
M  V30 13 C -2.6782 -4.444 0.0 0
M  V30 14 C -1.3746 -6.6956 0.0 0
M  V30 END ATOM
M  V30 BEGIN BOND
M  V30 1 2 1 2
M  V30 2 1 2 3
M  V30 3 1 2 4
M  V30 4 1 3 5
M  V30 5 1 4 6
M  V30 6 2 5 7
M  V30 7 1 5 8
M  V30 8 1 7 9
M  V30 9 1 7 10
M  V30 10 2 8 11
M  V30 11 2 9 12
M  V30 12 1 10 13
M  V30 13 1 10 14
M  V30 14 1 11 12
M  V30 END BOND
M  V30 END CTAB
M  END
>  <Molecule Name>
Isoprocarb

>  <Order (spectra)>
259

>  <NAME>
Isoprocarb

>  <Molecular Formula>
C11H15NO2

>  <Monoisotopic Mass>
193.110279

>  <SMILES>
CNC(=O)OC1=C(C=CC=C1)C(C)C

>  <InChI>
InChI=1S/C11H15NO2/c1-8(2)9-6-4-5-7-10(9)14-11(13)12-3/h4-8H,1-3H3,(H,12,13)

>  <InChIKey>
QBSJMKIUCUGGNG-UHFFFAOYSA-N

>  <Kingdom>
Organic compounds

>  <Superclass>
Benzenoids

>  <Class>
Benzene and substituted derivatives

>  <Subclass>
Cumenes

>  <Parent Level 1>
Cumenes

>  <Parent Level 2>


>  <Parent Level 3>


>  <cLogP>
2.5623

>  <cLogS>
-2.966

>  <Druglikeness>
-3.2855

>  <NP-class probability>
0.62

>  <SmilesFragFp 3>


>  <MS_READY_SMILES>
CNC(=O)OC1=C(C=CC=C1)C(C)C

>  <MS_READY_InChI>
InChI=1S/C11H15NO2/c1-8(2)9-6-4-5-7-10(9)14-11(13)12-3/h4-8H,1-3H3,(H,12,13)

>  <QSAR_READY_SMILES>
CNC(=O)OC1=C(C=CC=C1)C(C)C

>  <QSAR_READY_InChI>
InChI=1S/C11H15NO2/c1-8(2)9-6-4-5-7-10(9)14-11(13)12-3/h4-8H,1-3H3,(H,12,13)

>  <DTXSID>
DTXSID6042072

>  <DTXCID>
DTXCID4022072

>  <CASRN>
2631-40-5

>  <EXPOCAST_MEDIAN_EXPOSURE_PREDICTION_MG/KG-BW/DAY>
6.45E-06

>  <BIOCONCENTRATION_FACTOR_TEST_PRED>
4.85288

>  <BOILING_POINT_DEGC_TEST_PRED>
270.458

>  <48HR_DAPHNIA_LC50_MOL/L_TEST_PRED>
4.38E-06

>  <DENSITY_G/CM^3_TEST_PRED>
1.045

>  <DEVTOX_TEST_PRED>
0.894

>  <96HR_FATHEAD_MINNOW_MOL/L_TEST_PRED>
0.000032434

>  <FLASH_POINT_DEGC_TEST_PRED>
126.971

>  <MELTING_POINT_DEGC_TEST_PRED>
72.343

>  <AMES_MUTAGENICITY_TEST_PRED>
0.575

>  <ORAL_RAT_LD50_MOL/KG_TEST_PRED>
0.00149279

>  <SURFACE_TENSION_DYN/CM_TEST_PRED>
-

>  <THERMAL_CONDUCTIVITY_MW/(M*K)_TEST_PRED>
-

>  <TETRAHYMENA_PYRIFORMIS_IGC50_MOL/L_TEST_PRED>
0.00078886

>  <VISCOSITY_CP_CP_TEST_PRED>
20.5589

>  <VAPOR_PRESSURE_MMHG_TEST_PRED>
0.000135519

>  <WATER_SOLUBILITY_MOL/L_TEST_PRED>
0.00167109

>  <ATMOSPHERIC_HYDROXYLATION_RATE_(AOH)_CM3/MOLECULE*SEC_OPERA_PRED>
1.51E-11

>  <BIOCONCENTRATION_FACTOR_OPERA_PRED>
8.90531

>  <BIODEGRADATION_HALF_LIFE_DAYS_DAYS_OPERA_PRED>
4.49236

>  <BOILING_POINT_DEGC_OPERA_PRED>
273.796

>  <HENRYS_LAW_ATM-M3/MOLE_OPERA_PRED>
1.69E-08

>  <OPERA_KM_DAYS_OPERA_PRED>
0.0563347

>  <OCTANOL_AIR_PARTITION_COEFF_LOGKOA_OPERA_PRED>
8.69133

>  <SOIL_ADSORPTION_COEFFICIENT_KOC_L/KG_OPERA_PRED>
55.0033

>  <OCTANOL_WATER_PARTITION_LOGP_OPERA_PRED>
2.31367

>  <MELTING_POINT_DEGC_OPERA_PRED>
93.603

>  <VAPOR_PRESSURE_MMHG_OPERA_PRED>
0.000021382

>  <WATER_SOLUBILITY_MOL/L_OPERA_PRED>
0.00169245

>  <Shape Index>
0.57143

>  <Molecular Flexibility>
0.10011

>  <Molecular Complexity>
0.60487

>  <Electronegative Atoms>
3

>  <Stereo Centers>
0

>  <Rotatable Bonds>
3

>  <Rings Closures>
1

>  <Aromatic Rings>
1

>  <Aromatic Atoms>
6

>  <Amides>
1

>  <Amines>
0

>  <Aromatic Nitrogens>
0

>  <Shape Index 2>
0.57143

>  <Molecular Flexibility 2>
0.10011

>  <Molecular Complexity 2>
0.60487

>  <Non-C/H Atoms>
3

>  <Electronegative Atoms 2>
3

>  <Stereo Centers 2>
0

>  <Rotatable Bonds 2>
3

>  <Rings Closures 2>
1

>  <Aromatic Rings 2>
1

>  <Aromatic Atoms 2>
6

>  <sp3-Atoms>
5

>  <Amides 2>
1

>  <Amines 2>
0

>  <Aromatic Nitrogens 2>
0

>  <Basic Nitrogens>
0

$$$$
Linuron
Actelion Java MolfileCreator 2.0

  0  0  0  0  0  0              0 V3000
M  V30 BEGIN CTAB
M  V30 COUNTS 15 15 0 0 0
M  V30 BEGIN ATOM
M  V30 1 Cl 0.0 0.0 0.0 0
M  V30 2 C -1.3036 0.7516 0.0 0
M  V30 3 C -1.3154 2.255 0.0 0
M  V30 4 C -2.6073 0.0117 0.0 0
M  V30 5 Cl -0.0352 3.0066 0.0 0
M  V30 6 C -2.6191 3.0066 0.0 0
M  V30 7 C -3.911 0.7634 0.0 0
M  V30 8 C -3.9227 2.2785 0.0 0
M  V30 9 N -5.2147 0.0234 0.0 0
M  V30 10 C -6.5184 0.7751 0.0 0
M  V30 11 O -6.5301 2.2785 0.0 0
M  V30 12 N -7.822 0.0352 0.0 0
M  V30 13 O -9.1257 0.7869 0.0 0
M  V30 14 C -7.8338 -1.4446 0.0 0
M  V30 15 C -10.4294 0.0469 0.0 0
M  V30 END ATOM
M  V30 BEGIN BOND
M  V30 1 1 1 2
M  V30 2 2 2 3
M  V30 3 1 2 4
M  V30 4 1 3 5
M  V30 5 1 3 6
M  V30 6 2 4 7
M  V30 7 2 6 8
M  V30 8 1 7 9
M  V30 9 1 9 10
M  V30 10 2 10 11
M  V30 11 1 10 12
M  V30 12 1 12 13
M  V30 13 1 12 14
M  V30 14 1 13 15
M  V30 15 1 7 8
M  V30 END BOND
M  V30 END CTAB
M  END
>  <Molecule Name>
Linuron

>  <Order (spectra)>
260

>  <NAME>
Linuron

>  <Molecular Formula>
C9H10N2O2Cl2

>  <Monoisotopic Mass>
248.011932

>  <SMILES>
CON(C)C(=O)NC1=CC=C(Cl)C(Cl)=C1

>  <InChI>
InChI=1S/C9H10Cl2N2O2/c1-13(15-2)9(14)12-6-3-4-7(10)8(11)5-6/h3-5H,1-2H3,(H,12,14)

>  <InChIKey>
XKJMBINCVNINCA-UHFFFAOYSA-N

>  <Kingdom>
Organic compounds

>  <Superclass>
Benzenoids

>  <Class>
Benzene and substituted derivatives

>  <Subclass>
N-phenylureas

>  <Parent Level 1>
N-phenylureas

>  <Parent Level 2>


>  <Parent Level 3>


>  <cLogP>
2.0765

>  <cLogS>
-3.391

>  <Druglikeness>
-0.40021

>  <NP-class probability>
0.08

>  <SmilesFragFp 3>


>  <MS_READY_SMILES>
CON(C)C(=O)NC1=CC=C(Cl)C(Cl)=C1

>  <MS_READY_InChI>
InChI=1S/C9H10Cl2N2O2/c1-13(15-2)9(14)12-6-3-4-7(10)8(11)5-6/h3-5H,1-2H3,(H,12,14)

>  <QSAR_READY_SMILES>
CON(C)C(=O)NC1=CC=C(Cl)C(Cl)=C1

>  <QSAR_READY_InChI>
InChI=1S/C9H10Cl2N2O2/c1-13(15-2)9(14)12-6-3-4-7(10)8(11)5-6/h3-5H,1-2H3,(H,12,14)

>  <DTXSID>
DTXSID2024163

>  <DTXCID>
DTXCID604163

>  <CASRN>
330-55-2

>  <EXPOCAST_MEDIAN_EXPOSURE_PREDICTION_MG/KG-BW/DAY>
2.94E-06

>  <BIOCONCENTRATION_FACTOR_TEST_PRED>
-

>  <BOILING_POINT_DEGC_TEST_PRED>
304.222

>  <48HR_DAPHNIA_LC50_MOL/L_TEST_PRED>
-

>  <DENSITY_G/CM^3_TEST_PRED>
1.412

>  <DEVTOX_TEST_PRED>
0.569

>  <96HR_FATHEAD_MINNOW_MOL/L_TEST_PRED>
-

>  <FLASH_POINT_DEGC_TEST_PRED>
-

>  <MELTING_POINT_DEGC_TEST_PRED>
100.995

>  <AMES_MUTAGENICITY_TEST_PRED>
0.605

>  <ORAL_RAT_LD50_MOL/KG_TEST_PRED>
0.00564937

>  <SURFACE_TENSION_DYN/CM_TEST_PRED>
-

>  <THERMAL_CONDUCTIVITY_MW/(M*K)_TEST_PRED>
-

>  <TETRAHYMENA_PYRIFORMIS_IGC50_MOL/L_TEST_PRED>
-

>  <VISCOSITY_CP_CP_TEST_PRED>
-

>  <VAPOR_PRESSURE_MMHG_TEST_PRED>
6.79E-07

>  <WATER_SOLUBILITY_MOL/L_TEST_PRED>
0.000829851

>  <ATMOSPHERIC_HYDROXYLATION_RATE_(AOH)_CM3/MOLECULE*SEC_OPERA_PRED>
1.02E-11

>  <BIOCONCENTRATION_FACTOR_OPERA_PRED>
17.9046

>  <BIODEGRADATION_HALF_LIFE_DAYS_DAYS_OPERA_PRED>
3.53073

>  <BOILING_POINT_DEGC_OPERA_PRED>
323.046

>  <HENRYS_LAW_ATM-M3/MOLE_OPERA_PRED>
1.12E-09

>  <OPERA_KM_DAYS_OPERA_PRED>
0.107149

>  <OCTANOL_AIR_PARTITION_COEFF_LOGKOA_OPERA_PRED>
9.92762

>  <SOIL_ADSORPTION_COEFFICIENT_KOC_L/KG_OPERA_PRED>
499.316

>  <OCTANOL_WATER_PARTITION_LOGP_OPERA_PRED>
3.19781

>  <MELTING_POINT_DEGC_OPERA_PRED>
93.0319

>  <VAPOR_PRESSURE_MMHG_OPERA_PRED>
1.45E-06

>  <WATER_SOLUBILITY_MOL/L_OPERA_PRED>
0.000289987

>  <Shape Index>
0.66667

>  <Molecular Flexibility>
0.5314

>  <Molecular Complexity>
0.64123

>  <Electronegative Atoms>
6

>  <Stereo Centers>
0

>  <Rotatable Bonds>
2

>  <Rings Closures>
1

>  <Aromatic Rings>
1

>  <Aromatic Atoms>
6

>  <Amides>
1

>  <Amines>
0

>  <Aromatic Nitrogens>
0

>  <Shape Index 2>
0.66667

>  <Molecular Flexibility 2>
0.5314

>  <Molecular Complexity 2>
0.64123

>  <Non-C/H Atoms>
6

>  <Electronegative Atoms 2>
6

>  <Stereo Centers 2>
0

>  <Rotatable Bonds 2>
2

>  <Rings Closures 2>
1

>  <Aromatic Rings 2>
1

>  <Aromatic Atoms 2>
6

>  <sp3-Atoms>
4

>  <Amides 2>
1

>  <Amines 2>
0

>  <Aromatic Nitrogens 2>
0

>  <Basic Nitrogens>
0

$$$$
Metobromuron
Actelion Java MolfileCreator 2.0

  0  0  0  0  0  0              0 V3000
M  V30 BEGIN CTAB
M  V30 COUNTS 14 14 0 0 0
M  V30 BEGIN ATOM
M  V30 1 Br 0.0 0.0 0.0 0
M  V30 2 C -1.3063 -0.7414 0.0 0
M  V30 3 C -2.6127 0.0117 0.0 0
M  V30 4 C -1.3181 -2.2243 0.0 0
M  V30 5 C -3.9191 -0.7296 0.0 0
M  V30 6 C -2.6245 -2.9658 0.0 0
M  V30 7 C -3.9308 -2.2126 0.0 0
M  V30 8 N -5.2372 -2.954 0.0 0
M  V30 9 C -6.5436 -2.2008 0.0 0
M  V30 10 O -6.5554 -0.6943 0.0 0
M  V30 11 N -7.85 -2.9422 0.0 0
M  V30 12 O -9.1564 -2.189 0.0 0
M  V30 13 C -7.8617 -4.4252 0.0 0
M  V30 14 C -10.4627 -2.9305 0.0 0
M  V30 END ATOM
M  V30 BEGIN BOND
M  V30 1 1 1 2
M  V30 2 2 2 3
M  V30 3 1 2 4
M  V30 4 1 3 5
M  V30 5 2 4 6
M  V30 6 2 5 7
M  V30 7 1 7 8
M  V30 8 1 8 9
M  V30 9 2 9 10
M  V30 10 1 9 11
M  V30 11 1 11 12
M  V30 12 1 11 13
M  V30 13 1 12 14
M  V30 14 1 6 7
M  V30 END BOND
M  V30 END CTAB
M  END
>  <Molecule Name>
Metobromuron

>  <Order (spectra)>
261

>  <NAME>
Metobromuron

>  <Molecular Formula>
C9H11N2O2Br

>  <Monoisotopic Mass>
258.000389

>  <SMILES>
CON(C)C(=O)NC1=CC=C(Br)C=C1

>  <InChI>
InChI=1S/C9H11BrN2O2/c1-12(14-2)9(13)11-8-5-3-7(10)4-6-8/h3-6H,1-2H3,(H,11,13)

>  <InChIKey>
WLFDQEVORAMCIM-UHFFFAOYSA-N

>  <Kingdom>
Organic compounds

>  <Superclass>
Benzenoids

>  <Class>
Benzene and substituted derivatives

>  <Subclass>
N-phenylureas

>  <Parent Level 1>
N-phenylureas

>  <Parent Level 2>


>  <Parent Level 3>


>  <cLogP>
1.5897

>  <cLogS>
-2.753

>  <Druglikeness>
-2.2525

>  <NP-class probability>
0.15

>  <SmilesFragFp 3>


>  <MS_READY_SMILES>
CON(C)C(=O)NC1=CC=C(Br)C=C1

>  <MS_READY_InChI>
InChI=1S/C9H11BrN2O2/c1-12(14-2)9(13)11-8-5-3-7(10)4-6-8/h3-6H,1-2H3,(H,11,13)

>  <QSAR_READY_SMILES>
CON(C)C(=O)NC1=CC=C(Br)C=C1

>  <QSAR_READY_InChI>
InChI=1S/C9H11BrN2O2/c1-12(14-2)9(13)11-8-5-3-7(10)4-6-8/h3-6H,1-2H3,(H,11,13)

>  <DTXSID>
DTXSID6042157

>  <DTXCID>
DTXCID4022157

>  <CASRN>
3060-89-7

>  <EXPOCAST_MEDIAN_EXPOSURE_PREDICTION_MG/KG-BW/DAY>
5.79E-07

>  <BIOCONCENTRATION_FACTOR_TEST_PRED>
-

>  <BOILING_POINT_DEGC_TEST_PRED>
299.682

>  <48HR_DAPHNIA_LC50_MOL/L_TEST_PRED>
-

>  <DENSITY_G/CM^3_TEST_PRED>
1.458

>  <DEVTOX_TEST_PRED>
0.594

>  <96HR_FATHEAD_MINNOW_MOL/L_TEST_PRED>
-

>  <FLASH_POINT_DEGC_TEST_PRED>
67.467

>  <MELTING_POINT_DEGC_TEST_PRED>
96.013

>  <AMES_MUTAGENICITY_TEST_PRED>
0.739

>  <ORAL_RAT_LD50_MOL/KG_TEST_PRED>
0.00317687

>  <SURFACE_TENSION_DYN/CM_TEST_PRED>
-

>  <THERMAL_CONDUCTIVITY_MW/(M*K)_TEST_PRED>
-

>  <TETRAHYMENA_PYRIFORMIS_IGC50_MOL/L_TEST_PRED>
-

>  <VISCOSITY_CP_CP_TEST_PRED>
-

>  <VAPOR_PRESSURE_MMHG_TEST_PRED>
2.54E-06

>  <WATER_SOLUBILITY_MOL/L_TEST_PRED>
0.00131522

>  <ATMOSPHERIC_HYDROXYLATION_RATE_(AOH)_CM3/MOLECULE*SEC_OPERA_PRED>
1.03E-11

>  <BIOCONCENTRATION_FACTOR_OPERA_PRED>
7.36035

>  <BIODEGRADATION_HALF_LIFE_DAYS_DAYS_OPERA_PRED>
3.53653

>  <BOILING_POINT_DEGC_OPERA_PRED>
322.941

>  <HENRYS_LAW_ATM-M3/MOLE_OPERA_PRED>
1.10E-09

>  <OPERA_KM_DAYS_OPERA_PRED>
0.0707061

>  <OCTANOL_AIR_PARTITION_COEFF_LOGKOA_OPERA_PRED>
9.78496

>  <SOIL_ADSORPTION_COEFFICIENT_KOC_L/KG_OPERA_PRED>
126.185

>  <OCTANOL_WATER_PARTITION_LOGP_OPERA_PRED>
2.37832

>  <MELTING_POINT_DEGC_OPERA_PRED>
94.9865

>  <VAPOR_PRESSURE_MMHG_OPERA_PRED>
3.01E-06

>  <WATER_SOLUBILITY_MOL/L_OPERA_PRED>
0.00128969

>  <Shape Index>
0.71429

>  <Molecular Flexibility>
0.54527

>  <Molecular Complexity>
0.56446

>  <Electronegative Atoms>
5

>  <Stereo Centers>
0

>  <Rotatable Bonds>
2

>  <Rings Closures>
1

>  <Aromatic Rings>
1

>  <Aromatic Atoms>
6

>  <Amides>
1

>  <Amines>
0

>  <Aromatic Nitrogens>
0

>  <Shape Index 2>
0.71429

>  <Molecular Flexibility 2>
0.54527

>  <Molecular Complexity 2>
0.56446

>  <Non-C/H Atoms>
5

>  <Electronegative Atoms 2>
5

>  <Stereo Centers 2>
0

>  <Rotatable Bonds 2>
2

>  <Rings Closures 2>
1

>  <Aromatic Rings 2>
1

>  <Aromatic Atoms 2>
6

>  <sp3-Atoms>
4

>  <Amides 2>
1

>  <Amines 2>
0

>  <Aromatic Nitrogens 2>
0

>  <Basic Nitrogens>
0

$$$$
Monolinuron
Actelion Java MolfileCreator 2.0

  0  0  0  0  0  0              0 V3000
M  V30 BEGIN CTAB
M  V30 COUNTS 14 14 0 0 0
M  V30 BEGIN ATOM
M  V30 1 Cl 0.0 0.0 0.0 0
M  V30 2 C -1.3063 -0.7414 0.0 0
M  V30 3 C -2.6127 0.0117 0.0 0
M  V30 4 C -1.3181 -2.2243 0.0 0
M  V30 5 C -3.9191 -0.7296 0.0 0
M  V30 6 C -2.6245 -2.9658 0.0 0
M  V30 7 C -3.9308 -2.2126 0.0 0
M  V30 8 N -5.2372 -2.954 0.0 0
M  V30 9 C -6.5436 -2.2008 0.0 0
M  V30 10 O -6.5554 -0.6943 0.0 0
M  V30 11 N -7.85 -2.9422 0.0 0
M  V30 12 O -9.1564 -2.189 0.0 0
M  V30 13 C -7.8617 -4.4252 0.0 0
M  V30 14 C -10.4627 -2.9305 0.0 0
M  V30 END ATOM
M  V30 BEGIN BOND
M  V30 1 1 1 2
M  V30 2 2 2 3
M  V30 3 1 2 4
M  V30 4 1 3 5
M  V30 5 2 4 6
M  V30 6 2 5 7
M  V30 7 1 7 8
M  V30 8 1 8 9
M  V30 9 2 9 10
M  V30 10 1 9 11
M  V30 11 1 11 12
M  V30 12 1 11 13
M  V30 13 1 12 14
M  V30 14 1 6 7
M  V30 END BOND
M  V30 END CTAB
M  END
>  <Molecule Name>
Monolinuron

>  <Order (spectra)>
262

>  <NAME>
Monolinuron

>  <Molecular Formula>
C9H11N2O2Cl

>  <Monoisotopic Mass>
214.050905

>  <SMILES>
CON(C)C(=O)NC1=CC=C(Cl)C=C1

>  <InChI>
InChI=1S/C9H11ClN2O2/c1-12(14-2)9(13)11-8-5-3-7(10)4-6-8/h3-6H,1-2H3,(H,11,13)

>  <InChIKey>
LKJPSUCKSLORMF-UHFFFAOYSA-N

>  <Kingdom>
Organic compounds

>  <Superclass>
Benzenoids

>  <Class>
Benzene and substituted derivatives

>  <Subclass>
N-phenylureas

>  <Parent Level 1>
N-phenylureas

>  <Parent Level 2>


>  <Parent Level 3>


>  <cLogP>
1.4705

>  <cLogS>
-2.655

>  <Druglikeness>
-0.40021

>  <NP-class probability>
0.13

>  <SmilesFragFp 3>


>  <MS_READY_SMILES>
CON(C)C(=O)NC1=CC=C(Cl)C=C1

>  <MS_READY_InChI>
InChI=1S/C9H11ClN2O2/c1-12(14-2)9(13)11-8-5-3-7(10)4-6-8/h3-6H,1-2H3,(H,11,13)

>  <QSAR_READY_SMILES>
CON(C)C(=O)NC1=CC=C(Cl)C=C1

>  <QSAR_READY_InChI>
InChI=1S/C9H11ClN2O2/c1-12(14-2)9(13)11-8-5-3-7(10)4-6-8/h3-6H,1-2H3,(H,11,13)

>  <DTXSID>
DTXSID0037576

>  <DTXCID>
DTXCID8017576

>  <CASRN>
1746-81-2

>  <EXPOCAST_MEDIAN_EXPOSURE_PREDICTION_MG/KG-BW/DAY>
8.88E-07

>  <BIOCONCENTRATION_FACTOR_TEST_PRED>
-

>  <BOILING_POINT_DEGC_TEST_PRED>
285.537

>  <48HR_DAPHNIA_LC50_MOL/L_TEST_PRED>
-

>  <DENSITY_G/CM^3_TEST_PRED>
1.348

>  <DEVTOX_TEST_PRED>
0.499

>  <96HR_FATHEAD_MINNOW_MOL/L_TEST_PRED>
-

>  <FLASH_POINT_DEGC_TEST_PRED>
65.112

>  <MELTING_POINT_DEGC_TEST_PRED>
98.021

>  <AMES_MUTAGENICITY_TEST_PRED>
0.604

>  <ORAL_RAT_LD50_MOL/KG_TEST_PRED>
0.00521195

>  <SURFACE_TENSION_DYN/CM_TEST_PRED>
-

>  <THERMAL_CONDUCTIVITY_MW/(M*K)_TEST_PRED>
-

>  <TETRAHYMENA_PYRIFORMIS_IGC50_MOL/L_TEST_PRED>
-

>  <VISCOSITY_CP_CP_TEST_PRED>
-

>  <VAPOR_PRESSURE_MMHG_TEST_PRED>
3.18E-06

>  <WATER_SOLUBILITY_MOL/L_TEST_PRED>
0.00155597

>  <ATMOSPHERIC_HYDROXYLATION_RATE_(AOH)_CM3/MOLECULE*SEC_OPERA_PRED>
1.02E-11

>  <BIOCONCENTRATION_FACTOR_OPERA_PRED>
14.1791

>  <BIODEGRADATION_HALF_LIFE_DAYS_DAYS_OPERA_PRED>
3.54194

>  <BOILING_POINT_DEGC_OPERA_PRED>
300.847

>  <HENRYS_LAW_ATM-M3/MOLE_OPERA_PRED>
1.29E-09

>  <OPERA_KM_DAYS_OPERA_PRED>
0.0681522

>  <OCTANOL_AIR_PARTITION_COEFF_LOGKOA_OPERA_PRED>
9.23183

>  <SOIL_ADSORPTION_COEFFICIENT_KOC_L/KG_OPERA_PRED>
125.967

>  <OCTANOL_WATER_PARTITION_LOGP_OPERA_PRED>
2.29701

>  <MELTING_POINT_DEGC_OPERA_PRED>
81.6197

>  <VAPOR_PRESSURE_MMHG_OPERA_PRED>
0.000147338

>  <WATER_SOLUBILITY_MOL/L_OPERA_PRED>
0.00342455

>  <Shape Index>
0.71429

>  <Molecular Flexibility>
0.54527

>  <Molecular Complexity>
0.56446

>  <Electronegative Atoms>
5

>  <Stereo Centers>
0

>  <Rotatable Bonds>
2

>  <Rings Closures>
1

>  <Aromatic Rings>
1

>  <Aromatic Atoms>
6

>  <Amides>
1

>  <Amines>
0

>  <Aromatic Nitrogens>
0

>  <Shape Index 2>
0.71429

>  <Molecular Flexibility 2>
0.54527

>  <Molecular Complexity 2>
0.56446

>  <Non-C/H Atoms>
5

>  <Electronegative Atoms 2>
5

>  <Stereo Centers 2>
0

>  <Rotatable Bonds 2>
2

>  <Rings Closures 2>
1

>  <Aromatic Rings 2>
1

>  <Aromatic Atoms 2>
6

>  <sp3-Atoms>
4

>  <Amides 2>
1

>  <Amines 2>
0

>  <Aromatic Nitrogens 2>
0

>  <Basic Nitrogens>
0

$$$$
Siduron
Actelion Java MolfileCreator 2.0

  0  0  0  0  0  0              0 V3000
M  V30 BEGIN CTAB
M  V30 COUNTS 17 18 0 0 0
M  V30 BEGIN ATOM
M  V30 1 O 0.0 0.0 0.0 0
M  V30 2 C -0.0118 1.5149 0.0 0
M  V30 3 N 1.2782 2.2724 0.0 0
M  V30 4 N -1.3255 2.2724 0.0 0
M  V30 5 C 2.5683 1.5386 0.0 0
M  V30 6 C -2.6393 1.5386 0.0 0
M  V30 7 C 2.5565 0.0473 0.0 0
M  V30 8 C 3.8584 2.2961 0.0 0
M  V30 9 C -3.9531 2.2961 0.0 0
M  V30 10 C -2.6511 0.0473 0.0 0
M  V30 11 C 3.8466 -0.6864 0.0 0
M  V30 12 C 5.1485 1.5623 0.0 0
M  V30 13 C -5.2668 1.5623 0.0 0
M  V30 14 C -3.9649 3.811 0.0 0
M  V30 15 C -3.9649 -0.6864 0.0 0
M  V30 16 C 5.1366 0.071 0.0 0
M  V30 17 C -5.2787 0.071 0.0 0
M  V30 END ATOM
M  V30 BEGIN BOND
M  V30 1 2 1 2
M  V30 2 1 2 3
M  V30 3 1 2 4
M  V30 4 1 3 5
M  V30 5 1 4 6
M  V30 6 2 5 7
M  V30 7 1 5 8
M  V30 8 1 6 9
M  V30 9 1 6 10
M  V30 10 1 7 11
M  V30 11 2 8 12
M  V30 12 1 9 13
M  V30 13 1 9 14
M  V30 14 1 10 15
M  V30 15 2 11 16
M  V30 16 1 13 17
M  V30 17 1 12 16
M  V30 18 1 15 17
M  V30 END BOND
M  V30 END CTAB
M  END
>  <Molecule Name>
Siduron

>  <Order (spectra)>
264

>  <NAME>
Siduron

>  <Molecular Formula>
C14H20N2O

>  <Monoisotopic Mass>
232.157563

>  <SMILES>
CC1CCCCC1NC(=O)NC1=CC=CC=C1

>  <InChI>
InChI=1S/C14H20N2O/c1-11-7-5-6-10-13(11)16-14(17)15-12-8-3-2-4-9-12/h2-4,8-9,11,13H,5-7,10H2,1H3,(H2,15,16,17)

>  <InChIKey>
JXVIIQLNUPXOII-UHFFFAOYSA-N

>  <Kingdom>
Organic compounds

>  <Superclass>
Benzenoids

>  <Class>
Benzene and substituted derivatives

>  <Subclass>
N-phenylureas

>  <Parent Level 1>
N-phenylureas

>  <Parent Level 2>


>  <Parent Level 3>


>  <cLogP>
2.9173

>  <cLogS>
-3.871

>  <Druglikeness>
-3.0674

>  <NP-class probability>
0.21

>  <SmilesFragFp 3>


>  <MS_READY_SMILES>
CC1CCCCC1NC(=O)NC1=CC=CC=C1

>  <MS_READY_InChI>
InChI=1S/C14H20N2O/c1-11-7-5-6-10-13(11)16-14(17)15-12-8-3-2-4-9-12/h2-4,8-9,11,13H,5-7,10H2,1H3,(H2,15,16,17)

>  <QSAR_READY_SMILES>
CC1CCCCC1NC(=O)NC1=CC=CC=C1

>  <QSAR_READY_InChI>
InChI=1S/C14H20N2O/c1-11-7-5-6-10-13(11)16-14(17)15-12-8-3-2-4-9-12/h2-4,8-9,11,13H,5-7,10H2,1H3,(H2,15,16,17)

>  <DTXSID>
DTXSID7032474

>  <DTXCID>
DTXCID5012474

>  <CASRN>
1982-49-6

>  <EXPOCAST_MEDIAN_EXPOSURE_PREDICTION_MG/KG-BW/DAY>
7.01E-07

>  <BIOCONCENTRATION_FACTOR_TEST_PRED>
7.58578

>  <BOILING_POINT_DEGC_TEST_PRED>
345.392

>  <48HR_DAPHNIA_LC50_MOL/L_TEST_PRED>
2.61E-05

>  <DENSITY_G/CM^3_TEST_PRED>
1.157

>  <DEVTOX_TEST_PRED>
0.566

>  <96HR_FATHEAD_MINNOW_MOL/L_TEST_PRED>
3.06E-05

>  <FLASH_POINT_DEGC_TEST_PRED>
156.784

>  <MELTING_POINT_DEGC_TEST_PRED>
144.136

>  <AMES_MUTAGENICITY_TEST_PRED>
-0.056

>  <ORAL_RAT_LD50_MOL/KG_TEST_PRED>
0.0124165

>  <SURFACE_TENSION_DYN/CM_TEST_PRED>
-

>  <THERMAL_CONDUCTIVITY_MW/(M*K)_TEST_PRED>
-

>  <TETRAHYMENA_PYRIFORMIS_IGC50_MOL/L_TEST_PRED>
-

>  <VISCOSITY_CP_CP_TEST_PRED>
-

>  <VAPOR_PRESSURE_MMHG_TEST_PRED>
2.45E-08

>  <WATER_SOLUBILITY_MOL/L_TEST_PRED>
0.000356451

>  <ATMOSPHERIC_HYDROXYLATION_RATE_(AOH)_CM3/MOLECULE*SEC_OPERA_PRED>
1.75E-11

>  <BIOCONCENTRATION_FACTOR_OPERA_PRED>
19.9222

>  <BIODEGRADATION_HALF_LIFE_DAYS_DAYS_OPERA_PRED>
3.33946

>  <BOILING_POINT_DEGC_OPERA_PRED>
291.21

>  <HENRYS_LAW_ATM-M3/MOLE_OPERA_PRED>
1.99E-10

>  <OPERA_KM_DAYS_OPERA_PRED>
0.153334

>  <OCTANOL_AIR_PARTITION_COEFF_LOGKOA_OPERA_PRED>
9.12469

>  <SOIL_ADSORPTION_COEFFICIENT_KOC_L/KG_OPERA_PRED>
204.11

>  <OCTANOL_WATER_PARTITION_LOGP_OPERA_PRED>
3.79799

>  <MELTING_POINT_DEGC_OPERA_PRED>
135.643

>  <VAPOR_PRESSURE_MMHG_OPERA_PRED>
4.04E-09

>  <WATER_SOLUBILITY_MOL/L_OPERA_PRED>
7.91E-05

>  <Shape Index>
0.64706

>  <Molecular Flexibility>
0.49206

>  <Molecular Complexity>
0.56718

>  <Electronegative Atoms>
3

>  <Stereo Centers>
2

>  <Rotatable Bonds>
2

>  <Rings Closures>
2

>  <Aromatic Rings>
1

>  <Aromatic Atoms>
6

>  <Amides>
2

>  <Amines>
0

>  <Aromatic Nitrogens>
0

>  <Shape Index 2>
0.64706

>  <Molecular Flexibility 2>
0.49206

>  <Molecular Complexity 2>
0.56718

>  <Non-C/H Atoms>
3

>  <Electronegative Atoms 2>
3

>  <Stereo Centers 2>
2

>  <Rotatable Bonds 2>
2

>  <Rings Closures 2>
2

>  <Aromatic Rings 2>
1

>  <Aromatic Atoms 2>
6

>  <sp3-Atoms>
7

>  <Amides 2>
2

>  <Amines 2>
0

>  <Aromatic Nitrogens 2>
0

>  <Basic Nitrogens>
0

$$$$
Bifenazate
Actelion Java MolfileCreator 2.0

  0  0  0  0  0  0              0 V3000
M  V30 BEGIN CTAB
M  V30 COUNTS 22 23 0 0 0
M  V30 BEGIN ATOM
M  V30 1 O 0.0 0.0 0.0 0
M  V30 2 C -0.0118 -1.491 0.0 0
M  V30 3 O 1.278 -2.2247 0.0 0
M  V30 4 N -1.3253 -2.2247 0.0 0
M  V30 5 C 2.5679 -1.4673 0.0 0
M  V30 6 N -2.6389 -1.4673 0.0 0
M  V30 7 C 3.8577 -2.201 0.0 0
M  V30 8 C 2.556 0.0473 0.0 0
M  V30 9 C -3.9524 -2.201 0.0 0
M  V30 10 C -5.266 -1.4437 0.0 0
M  V30 11 C -3.9643 -3.6921 0.0 0
M  V30 12 O -5.2778 0.071 0.0 0
M  V30 13 C -6.5795 -2.1774 0.0 0
M  V30 14 C -5.2778 -4.4258 0.0 0
M  V30 15 C -6.5913 0.8283 0.0 0
M  V30 16 C -6.5913 -3.6684 0.0 0
M  V30 17 C -5.2896 -5.9168 0.0 0
M  V30 18 C -6.6032 -6.6505 0.0 0
M  V30 19 C -3.9998 -6.6505 0.0 0
M  V30 20 C -6.615 -8.1416 0.0 0
M  V30 21 C -4.0116 -8.1416 0.0 0
M  V30 22 C -5.3251 -8.8752 0.0 0
M  V30 END ATOM
M  V30 BEGIN BOND
M  V30 1 2 1 2
M  V30 2 1 2 3
M  V30 3 1 2 4
M  V30 4 1 3 5
M  V30 5 1 4 6
M  V30 6 1 5 7
M  V30 7 1 5 8
M  V30 8 1 6 9
M  V30 9 2 9 10
M  V30 10 1 9 11
M  V30 11 1 10 12
M  V30 12 1 10 13
M  V30 13 2 11 14
M  V30 14 1 12 15
M  V30 15 2 13 16
M  V30 16 1 14 17
M  V30 17 2 17 18
M  V30 18 1 17 19
M  V30 19 1 18 20
M  V30 20 2 19 21
M  V30 21 2 20 22
M  V30 22 1 14 16
M  V30 23 1 21 22
M  V30 END BOND
M  V30 END CTAB
M  END
>  <Molecule Name>
Bifenazate

>  <Order (spectra)>
266

>  <NAME>
Bifenazate

>  <Molecular Formula>
C17H20N2O3

>  <Monoisotopic Mass>
300.147393

>  <SMILES>
COC1=C(NNC(=O)OC(C)C)C=C(C=C1)C1=CC=CC=C1

>  <InChI>
InChI=1S/C17H20N2O3/c1-12(2)22-17(20)19-18-15-11-14(9-10-16(15)21-3)13-7-5-4-6-8-13/h4-12,18H,1-3H3,(H,19,20)

>  <InChIKey>
VHLKTXFWDRXILV-UHFFFAOYSA-N

>  <Kingdom>
Organic compounds

>  <Superclass>
Benzenoids

>  <Class>
Benzene and substituted derivatives

>  <Subclass>
Biphenyls and derivatives

>  <Parent Level 1>
Biphenyls and derivatives

>  <Parent Level 2>


>  <Parent Level 3>


>  <cLogP>
4.3711

>  <cLogS>
-4.665

>  <Druglikeness>
-9.8786

>  <NP-class probability>
0.12

>  <SmilesFragFp 3>


>  <MS_READY_SMILES>
COC1=C(NNC(=O)OC(C)C)C=C(C=C1)C1=CC=CC=C1

>  <MS_READY_InChI>
InChI=1S/C17H20N2O3/c1-12(2)22-17(20)19-18-15-11-14(9-10-16(15)21-3)13-7-5-4-6-8-13/h4-12,18H,1-3H3,(H,19,20)

>  <QSAR_READY_SMILES>
COC1=C(NNC(=O)OC(C)C)C=C(C=C1)C1=CC=CC=C1

>  <QSAR_READY_InChI>
InChI=1S/C17H20N2O3/c1-12(2)22-17(20)19-18-15-11-14(9-10-16(15)21-3)13-7-5-4-6-8-13/h4-12,18H,1-3H3,(H,19,20)

>  <DTXSID>
DTXSID5032525

>  <DTXCID>
DTXCID3012525

>  <CASRN>
149877-41-8

>  <EXPOCAST_MEDIAN_EXPOSURE_PREDICTION_MG/KG-BW/DAY>
3.93E-07

>  <BIOCONCENTRATION_FACTOR_TEST_PRED>
36.6438

>  <BOILING_POINT_DEGC_TEST_PRED>
378.503

>  <48HR_DAPHNIA_LC50_MOL/L_TEST_PRED>
8.97E-06

>  <DENSITY_G/CM^3_TEST_PRED>
1.188

>  <DEVTOX_TEST_PRED>
0.615

>  <96HR_FATHEAD_MINNOW_MOL/L_TEST_PRED>
5.75E-06

>  <FLASH_POINT_DEGC_TEST_PRED>
190.087

>  <MELTING_POINT_DEGC_TEST_PRED>
143.155

>  <AMES_MUTAGENICITY_TEST_PRED>
0.751

>  <ORAL_RAT_LD50_MOL/KG_TEST_PRED>
0.00659174

>  <SURFACE_TENSION_DYN/CM_TEST_PRED>
-

>  <THERMAL_CONDUCTIVITY_MW/(M*K)_TEST_PRED>
-

>  <TETRAHYMENA_PYRIFORMIS_IGC50_MOL/L_TEST_PRED>
9.53E-06

>  <VISCOSITY_CP_CP_TEST_PRED>
-

>  <VAPOR_PRESSURE_MMHG_TEST_PRED>
5.30E-08

>  <WATER_SOLUBILITY_MOL/L_TEST_PRED>
2.64E-05

>  <ATMOSPHERIC_HYDROXYLATION_RATE_(AOH)_CM3/MOLECULE*SEC_OPERA_PRED>
1.70E-11

>  <BIOCONCENTRATION_FACTOR_OPERA_PRED>
46.4627

>  <BIODEGRADATION_HALF_LIFE_DAYS_DAYS_OPERA_PRED>
3.53994

>  <BOILING_POINT_DEGC_OPERA_PRED>
306.757

>  <HENRYS_LAW_ATM-M3/MOLE_OPERA_PRED>
7.13E-10

>  <OPERA_KM_DAYS_OPERA_PRED>
0.215005

>  <OCTANOL_AIR_PARTITION_COEFF_LOGKOA_OPERA_PRED>
9.23541

>  <SOIL_ADSORPTION_COEFFICIENT_KOC_L/KG_OPERA_PRED>
1746.67

>  <OCTANOL_WATER_PARTITION_LOGP_OPERA_PRED>
3.16535

>  <MELTING_POINT_DEGC_OPERA_PRED>
122.032

>  <VAPOR_PRESSURE_MMHG_OPERA_PRED>
7.44E-08

>  <WATER_SOLUBILITY_MOL/L_OPERA_PRED>
9.33E-06

>  <Shape Index>
0.59091

>  <Molecular Flexibility>
0.37076

>  <Molecular Complexity>
0.71863

>  <Electronegative Atoms>
5

>  <Stereo Centers>
0

>  <Rotatable Bonds>
6

>  <Rings Closures>
2

>  <Aromatic Rings>
2

>  <Aromatic Atoms>
12

>  <Amides>
0

>  <Amines>
0

>  <Aromatic Nitrogens>
0

>  <Shape Index 2>
0.59091

>  <Molecular Flexibility 2>
0.37076

>  <Molecular Complexity 2>
0.71863

>  <Non-C/H Atoms>
5

>  <Electronegative Atoms 2>
5

>  <Stereo Centers 2>
0

>  <Rotatable Bonds 2>
6

>  <Rings Closures 2>
2

>  <Aromatic Rings 2>
2

>  <Aromatic Atoms 2>
12

>  <sp3-Atoms>
6

>  <Amides 2>
0

>  <Amines 2>
0

>  <Aromatic Nitrogens 2>
0

>  <Basic Nitrogens>
0

$$$$
Diethofencarb
Actelion Java MolfileCreator 2.0

  0  0  0  0  0  0              0 V3000
M  V30 BEGIN CTAB
M  V30 COUNTS 19 19 0 0 0
M  V30 BEGIN ATOM
M  V30 1 O 0.0 0.0 0.0 0
M  V30 2 C -0.0118 -1.4926 0.0 0
M  V30 3 O -1.3267 -2.2389 0.0 0
M  V30 4 N 1.2794 -2.2389 0.0 0
M  V30 5 C -2.6417 -1.4807 0.0 0
M  V30 6 C 2.5706 -1.4807 0.0 0
M  V30 7 C -2.6535 0.0355 0.0 0
M  V30 8 C -3.9566 -2.2271 0.0 0
M  V30 9 C 3.8619 -2.2152 0.0 0
M  V30 10 C 2.5588 0.0355 0.0 0
M  V30 11 C 5.1531 -1.4571 0.0 0
M  V30 12 C 3.85 0.7937 0.0 0
M  V30 13 O 6.4444 -2.2034 0.0 0
M  V30 14 C 5.1413 0.0592 0.0 0
M  V30 15 C 6.4325 -3.696 0.0 0
M  V30 16 O 6.4325 0.8173 0.0 0
M  V30 17 C 7.7238 -4.4423 0.0 0
M  V30 18 C 7.7238 0.071 0.0 0
M  V30 19 C 9.015 0.8292 0.0 0
M  V30 END ATOM
M  V30 BEGIN BOND
M  V30 1 2 1 2
M  V30 2 1 2 3
M  V30 3 1 2 4
M  V30 4 1 3 5
M  V30 5 1 4 6
M  V30 6 1 5 7
M  V30 7 1 5 8
M  V30 8 2 6 9
M  V30 9 1 6 10
M  V30 10 1 9 11
M  V30 11 2 10 12
M  V30 12 1 11 13
M  V30 13 2 11 14
M  V30 14 1 13 15
M  V30 15 1 14 16
M  V30 16 1 15 17
M  V30 17 1 16 18
M  V30 18 1 18 19
M  V30 19 1 12 14
M  V30 END BOND
M  V30 END CTAB
M  END
>  <Molecule Name>
Diethofencarb

>  <Order (spectra)>
269

>  <NAME>
Diethofencarb

>  <Molecular Formula>
C14H21NO4

>  <Monoisotopic Mass>
267.147059

>  <SMILES>
CCOC1=CC=C(NC(=O)OC(C)C)C=C1OCC

>  <InChI>
InChI=1S/C14H21NO4/c1-5-17-12-8-7-11(9-13(12)18-6-2)15-14(16)19-10(3)4/h7-10H,5-6H2,1-4H3,(H,15,16)

>  <InChIKey>
LNJNFVJKDJYTEU-UHFFFAOYSA-N

>  <Kingdom>
Organic compounds

>  <Superclass>
Benzenoids

>  <Class>
Benzene and substituted derivatives

>  <Subclass>
Phenylcarbamic acid esters

>  <Parent Level 1>
Phenylcarbamic acid esters

>  <Parent Level 2>


>  <Parent Level 3>


>  <cLogP>
3.0047

>  <cLogS>
-3.587

>  <Druglikeness>
-17.581

>  <NP-class probability>
0.18

>  <SmilesFragFp 3>


>  <MS_READY_SMILES>
CCOC1=CC=C(NC(=O)OC(C)C)C=C1OCC

>  <MS_READY_InChI>
InChI=1S/C14H21NO4/c1-5-17-12-8-7-11(9-13(12)18-6-2)15-14(16)19-10(3)4/h7-10H,5-6H2,1-4H3,(H,15,16)

>  <QSAR_READY_SMILES>
CCOC1=CC=C(NC(=O)OC(C)C)C=C1OCC

>  <QSAR_READY_InChI>
InChI=1S/C14H21NO4/c1-5-17-12-8-7-11(9-13(12)18-6-2)15-14(16)19-10(3)4/h7-10H,5-6H2,1-4H3,(H,15,16)

>  <DTXSID>
DTXSID5037527

>  <DTXCID>
DTXCID3017527

>  <CASRN>
87130-20-9

>  <EXPOCAST_MEDIAN_EXPOSURE_PREDICTION_MG/KG-BW/DAY>
2.53E-07

>  <BIOCONCENTRATION_FACTOR_TEST_PRED>
17.7419

>  <BOILING_POINT_DEGC_TEST_PRED>
335.03

>  <48HR_DAPHNIA_LC50_MOL/L_TEST_PRED>
2.01E-05

>  <DENSITY_G/CM^3_TEST_PRED>
1.108

>  <DEVTOX_TEST_PRED>
0.58

>  <96HR_FATHEAD_MINNOW_MOL/L_TEST_PRED>
1.89E-05

>  <FLASH_POINT_DEGC_TEST_PRED>
190.438

>  <MELTING_POINT_DEGC_TEST_PRED>
85.114

>  <AMES_MUTAGENICITY_TEST_PRED>
0.611

>  <ORAL_RAT_LD50_MOL/KG_TEST_PRED>
0.00510505

>  <SURFACE_TENSION_DYN/CM_TEST_PRED>
-

>  <THERMAL_CONDUCTIVITY_MW/(M*K)_TEST_PRED>
-

>  <TETRAHYMENA_PYRIFORMIS_IGC50_MOL/L_TEST_PRED>
-

>  <VISCOSITY_CP_CP_TEST_PRED>
46.4515

>  <VAPOR_PRESSURE_MMHG_TEST_PRED>
5.35E-08

>  <WATER_SOLUBILITY_MOL/L_TEST_PRED>
0.00039355

>  <ATMOSPHERIC_HYDROXYLATION_RATE_(AOH)_CM3/MOLECULE*SEC_OPERA_PRED>
1.65E-11

>  <BIOCONCENTRATION_FACTOR_OPERA_PRED>
19.8465

>  <BIODEGRADATION_HALF_LIFE_DAYS_DAYS_OPERA_PRED>
5.12309

>  <BOILING_POINT_DEGC_OPERA_PRED>
301.893

>  <HENRYS_LAW_ATM-M3/MOLE_OPERA_PRED>
3.23E-10

>  <OPERA_KM_DAYS_OPERA_PRED>
0.497886

>  <OCTANOL_AIR_PARTITION_COEFF_LOGKOA_OPERA_PRED>
10.3652

>  <SOIL_ADSORPTION_COEFFICIENT_KOC_L/KG_OPERA_PRED>
262.561

>  <OCTANOL_WATER_PARTITION_LOGP_OPERA_PRED>
2.91094

>  <MELTING_POINT_DEGC_OPERA_PRED>
100.301

>  <VAPOR_PRESSURE_MMHG_OPERA_PRED>
6.25E-05

>  <WATER_SOLUBILITY_MOL/L_OPERA_PRED>
0.000101315

>  <Shape Index>
0.63158

>  <Molecular Flexibility>
0.40262

>  <Molecular Complexity>
0.6766

>  <Electronegative Atoms>
5

>  <Stereo Centers>
0

>  <Rotatable Bonds>
7

>  <Rings Closures>
1

>  <Aromatic Rings>
1

>  <Aromatic Atoms>
6

>  <Amides>
1

>  <Amines>
0

>  <Aromatic Nitrogens>
0

>  <Shape Index 2>
0.63158

>  <Molecular Flexibility 2>
0.40262

>  <Molecular Complexity 2>
0.6766

>  <Non-C/H Atoms>
5

>  <Electronegative Atoms 2>
5

>  <Stereo Centers 2>
0

>  <Rotatable Bonds 2>
7

>  <Rings Closures 2>
1

>  <Aromatic Rings 2>
1

>  <Aromatic Atoms 2>
6

>  <sp3-Atoms>
10

>  <Amides 2>
1

>  <Amines 2>
0

>  <Aromatic Nitrogens 2>
0

>  <Basic Nitrogens>
0

$$$$
Diflubenzuron
Actelion Java MolfileCreator 2.0

  0  0  0  0  0  0              0 V3000
M  V30 BEGIN CTAB
M  V30 COUNTS 21 22 0 0 0
M  V30 BEGIN ATOM
M  V30 1 Cl 0.0 0.0 0.0 0
M  V30 2 C -1.3064 -0.7415 0.0 0
M  V30 3 C -2.6129 0.0117 0.0 0
M  V30 4 C -1.3182 -2.2245 0.0 0
M  V30 5 C -3.9193 -0.7297 0.0 0
M  V30 6 C -2.6246 -2.966 0.0 0
M  V30 7 C -3.9311 -2.2127 0.0 0
M  V30 8 N -5.2375 -2.9542 0.0 0
M  V30 9 C -6.544 -2.2009 0.0 0
M  V30 10 O -6.5558 -0.6944 0.0 0
M  V30 11 N -7.8505 -2.9424 0.0 0
M  V30 12 C -9.1569 -2.1891 0.0 0
M  V30 13 O -9.1687 -0.6826 0.0 0
M  V30 14 C -10.4634 -2.9306 0.0 0
M  V30 15 C -11.7698 -2.1774 0.0 0
M  V30 16 C -10.4751 -4.4137 0.0 0
M  V30 17 F -11.7816 -0.6708 0.0 0
M  V30 18 C -13.0763 -2.9071 0.0 0
M  V30 19 F -9.1922 -5.1552 0.0 0
M  V30 20 C -11.7816 -5.1552 0.0 0
M  V30 21 C -13.0881 -4.3901 0.0 0
M  V30 END ATOM
M  V30 BEGIN BOND
M  V30 1 1 1 2
M  V30 2 2 2 3
M  V30 3 1 2 4
M  V30 4 1 3 5
M  V30 5 2 4 6
M  V30 6 2 5 7
M  V30 7 1 7 8
M  V30 8 1 8 9
M  V30 9 2 9 10
M  V30 10 1 9 11
M  V30 11 1 11 12
M  V30 12 2 12 13
M  V30 13 1 12 14
M  V30 14 2 14 15
M  V30 15 1 14 16
M  V30 16 1 15 17
M  V30 17 1 15 18
M  V30 18 1 16 19
M  V30 19 2 16 20
M  V30 20 2 18 21
M  V30 21 1 6 7
M  V30 22 1 20 21
M  V30 END BOND
M  V30 END CTAB
M  END
>  <Molecule Name>
Diflubenzuron

>  <Order (spectra)>
270

>  <NAME>
Diflubenzuron

>  <Molecular Formula>
C14H9N2O2ClF2

>  <Monoisotopic Mass>
310.032061

>  <SMILES>
FC1=CC=CC(F)=C1C(=O)NC(=O)NC1=CC=C(Cl)C=C1

>  <InChI>
InChI=1S/C14H9ClF2N2O2/c15-8-4-6-9(7-5-8)18-14(21)19-13(20)12-10(16)2-1-3-11(12)17/h1-7H,(H2,18,19,20,21)

>  <InChIKey>
QQQYTWIFVNKMRW-UHFFFAOYSA-N

>  <Kingdom>
Organic compounds

>  <Superclass>
Benzenoids

>  <Class>
Benzene and substituted derivatives

>  <Subclass>
N-phenylureas

>  <Parent Level 1>
N-acyl-phenylureas

>  <Parent Level 2>
N-benzoyl-N'-phenylureas

>  <Parent Level 3>


>  <cLogP>
3.4004

>  <cLogS>
-4.953

>  <Druglikeness>
0.23732

>  <NP-class probability>
0.04

>  <SmilesFragFp 3>


>  <MS_READY_SMILES>
FC1=CC=CC(F)=C1C(=O)NC(=O)NC1=CC=C(Cl)C=C1

>  <MS_READY_InChI>
InChI=1S/C14H9ClF2N2O2/c15-8-4-6-9(7-5-8)18-14(21)19-13(20)12-10(16)2-1-3-11(12)17/h1-7H,(H2,18,19,20,21)

>  <QSAR_READY_SMILES>
FC1=CC=CC(F)=C1C(=O)NC(=O)NC1=CC=C(Cl)C=C1

>  <QSAR_READY_InChI>
InChI=1S/C14H9ClF2N2O2/c15-8-4-6-9(7-5-8)18-14(21)19-13(20)12-10(16)2-1-3-11(12)17/h1-7H,(H2,18,19,20,21)

>  <DTXSID>
DTXSID1024049

>  <DTXCID>
DTXCID204049

>  <CASRN>
35367-38-5

>  <EXPOCAST_MEDIAN_EXPOSURE_PREDICTION_MG/KG-BW/DAY>
2.04E-07

>  <BIOCONCENTRATION_FACTOR_TEST_PRED>
29.7852

>  <BOILING_POINT_DEGC_TEST_PRED>
414.58

>  <48HR_DAPHNIA_LC50_MOL/L_TEST_PRED>
1.51E-06

>  <DENSITY_G/CM^3_TEST_PRED>
1.501

>  <DEVTOX_TEST_PRED>
0.872

>  <96HR_FATHEAD_MINNOW_MOL/L_TEST_PRED>
4.76E-06

>  <FLASH_POINT_DEGC_TEST_PRED>
246.27

>  <MELTING_POINT_DEGC_TEST_PRED>
203.265

>  <AMES_MUTAGENICITY_TEST_PRED>
0.326

>  <ORAL_RAT_LD50_MOL/KG_TEST_PRED>
0.00591562

>  <SURFACE_TENSION_DYN/CM_TEST_PRED>
-

>  <THERMAL_CONDUCTIVITY_MW/(M*K)_TEST_PRED>
-

>  <TETRAHYMENA_PYRIFORMIS_IGC50_MOL/L_TEST_PRED>
-

>  <VISCOSITY_CP_CP_TEST_PRED>
-

>  <VAPOR_PRESSURE_MMHG_TEST_PRED>
4.52E-09

>  <WATER_SOLUBILITY_MOL/L_TEST_PRED>
1.22E-06

>  <ATMOSPHERIC_HYDROXYLATION_RATE_(AOH)_CM3/MOLECULE*SEC_OPERA_PRED>
1.06E-11

>  <BIOCONCENTRATION_FACTOR_OPERA_PRED>
158.674

>  <BIODEGRADATION_HALF_LIFE_DAYS_DAYS_OPERA_PRED>
3.5341

>  <BOILING_POINT_DEGC_OPERA_PRED>
263.086

>  <HENRYS_LAW_ATM-M3/MOLE_OPERA_PRED>
7.99E-11

>  <OPERA_KM_DAYS_OPERA_PRED>
0.259159

>  <OCTANOL_AIR_PARTITION_COEFF_LOGKOA_OPERA_PRED>
9.39837

>  <SOIL_ADSORPTION_COEFFICIENT_KOC_L/KG_OPERA_PRED>
6742.19

>  <OCTANOL_WATER_PARTITION_LOGP_OPERA_PRED>
3.87716

>  <MELTING_POINT_DEGC_OPERA_PRED>
238.964

>  <VAPOR_PRESSURE_MMHG_OPERA_PRED>
8.96E-10

>  <WATER_SOLUBILITY_MOL/L_OPERA_PRED>
4.01E-07

>  <Shape Index>
0.61905

>  <Molecular Flexibility>
0.44005

>  <Molecular Complexity>
0.68153

>  <Electronegative Atoms>
7

>  <Stereo Centers>
0

>  <Rotatable Bonds>
2

>  <Rings Closures>
2

>  <Aromatic Rings>
2

>  <Aromatic Atoms>
12

>  <Amides>
2

>  <Amines>
0

>  <Aromatic Nitrogens>
0

>  <Shape Index 2>
0.61905

>  <Molecular Flexibility 2>
0.44005

>  <Molecular Complexity 2>
0.68153

>  <Non-C/H Atoms>
7

>  <Electronegative Atoms 2>
7

>  <Stereo Centers 2>
0

>  <Rotatable Bonds 2>
2

>  <Rings Closures 2>
2

>  <Aromatic Rings 2>
2

>  <Aromatic Atoms 2>
12

>  <sp3-Atoms>
0

>  <Amides 2>
2

>  <Amines 2>
0

>  <Aromatic Nitrogens 2>
0

>  <Basic Nitrogens>
0

$$$$
Fenobucarb
Actelion Java MolfileCreator 2.0

  0  0  0  0  0  0              0 V3000
M  V30 BEGIN CTAB
M  V30 COUNTS 15 15 0 0 0
M  V30 BEGIN ATOM
M  V30 1 O 0.0 0.0 0.0 0
M  V30 2 C -1.315 -0.7463 0.0 0
M  V30 3 O -1.3268 -2.2391 0.0 0
M  V30 4 N -2.63 0.0118 0.0 0
M  V30 5 C -0.0355 -2.9736 0.0 0
M  V30 6 C -2.6419 1.5282 0.0 0
M  V30 7 C -0.0473 -4.4663 0.0 0
M  V30 8 C 1.2557 -2.2154 0.0 0
M  V30 9 C 1.2439 -5.2008 0.0 0
M  V30 10 C -1.3624 -5.2008 0.0 0 CFG=2
M  V30 11 C 2.5471 -2.9499 0.0 0
M  V30 12 C 2.5352 -4.4426 0.0 0
M  V30 13 C -2.6774 -4.4426 0.0 0
M  V30 14 C -1.3742 -6.6936 0.0 0
M  V30 15 C -3.9924 -5.1772 0.0 0
M  V30 END ATOM
M  V30 BEGIN BOND
M  V30 1 2 1 2
M  V30 2 1 2 3
M  V30 3 1 2 4
M  V30 4 1 3 5
M  V30 5 1 4 6
M  V30 6 2 5 7
M  V30 7 1 5 8
M  V30 8 1 7 9
M  V30 9 1 7 10
M  V30 10 2 8 11
M  V30 11 2 9 12
M  V30 12 1 10 13
M  V30 13 1 10 14 CFG=1
M  V30 14 1 13 15
M  V30 15 1 11 12
M  V30 END BOND
M  V30 BEGIN COLLECTION
M  V30 MDLV30/STERAC1 ATOMS=(1 10)
M  V30 END COLLECTION
M  V30 END CTAB
M  END
>  <Molecule Name>
Fenobucarb

>  <Order (spectra)>
271

>  <NAME>
Fenobucarb

>  <Molecular Formula>
C12H17NO2

>  <Monoisotopic Mass>
207.125929

>  <SMILES>
CCC(C)C1=CC=CC=C1OC(=O)NC

>  <InChI>
InChI=1S/C12H17NO2/c1-4-9(2)10-7-5-6-8-11(10)15-12(14)13-3/h5-9H,4H2,1-3H3,(H,13,14)/t9-/m0/s1

>  <InChIKey>
DIRFUJHNVNOBMY-UHFFFAOYSA-N

>  <Kingdom>
Organic compounds

>  <Superclass>
Benzenoids

>  <Class>
Benzene and substituted derivatives

>  <Subclass>
Phenyl methylcarbamates

>  <Parent Level 1>
Phenyl methylcarbamates

>  <Parent Level 2>


>  <Parent Level 3>


>  <cLogP>
3.0167

>  <cLogS>
-3.236

>  <Druglikeness>
-2.5614

>  <NP-class probability>
0.4

>  <SmilesFragFp 3>


>  <MS_READY_SMILES>
CCC(C)C1=CC=CC=C1OC(=O)NC

>  <MS_READY_InChI>
InChI=1S/C12H17NO2/c1-4-9(2)10-7-5-6-8-11(10)15-12(14)13-3/h5-9H,4H2,1-3H3,(H,13,14)/t9-/m0/s1

>  <QSAR_READY_SMILES>
CCC(C)C1=CC=CC=C1OC(=O)NC

>  <QSAR_READY_InChI>
InChI=1S/C12H17NO2/c1-4-9(2)10-7-5-6-8-11(10)15-12(14)13-3/h5-9H,4H2,1-3H3,(H,13,14)/t9-/m0/s1

>  <DTXSID>
DTXSID4058077

>  <DTXCID>
DTXCID0031845

>  <CASRN>
3766-81-2

>  <EXPOCAST_MEDIAN_EXPOSURE_PREDICTION_MG/KG-BW/DAY>
1.15E-06

>  <BIOCONCENTRATION_FACTOR_TEST_PRED>
6.99842

>  <BOILING_POINT_DEGC_TEST_PRED>
299.927

>  <48HR_DAPHNIA_LC50_MOL/L_TEST_PRED>
4.30E-06

>  <DENSITY_G/CM^3_TEST_PRED>
1.037

>  <DEVTOX_TEST_PRED>
0.916

>  <96HR_FATHEAD_MINNOW_MOL/L_TEST_PRED>
1.77E-05

>  <FLASH_POINT_DEGC_TEST_PRED>
127.855

>  <MELTING_POINT_DEGC_TEST_PRED>
69.832

>  <AMES_MUTAGENICITY_TEST_PRED>
0.632

>  <ORAL_RAT_LD50_MOL/KG_TEST_PRED>
0.000459198

>  <SURFACE_TENSION_DYN/CM_TEST_PRED>
-

>  <THERMAL_CONDUCTIVITY_MW/(M*K)_TEST_PRED>
-

>  <TETRAHYMENA_PYRIFORMIS_IGC50_MOL/L_TEST_PRED>
9.73E-05

>  <VISCOSITY_CP_CP_TEST_PRED>
34.435

>  <VAPOR_PRESSURE_MMHG_TEST_PRED>
3.43E-05

>  <WATER_SOLUBILITY_MOL/L_TEST_PRED>
0.000954993

>  <ATMOSPHERIC_HYDROXYLATION_RATE_(AOH)_CM3/MOLECULE*SEC_OPERA_PRED>
1.41E-11

>  <BIOCONCENTRATION_FACTOR_OPERA_PRED>
25.6839

>  <BIODEGRADATION_HALF_LIFE_DAYS_DAYS_OPERA_PRED>
3.5425

>  <BOILING_POINT_DEGC_OPERA_PRED>
280.43

>  <HENRYS_LAW_ATM-M3/MOLE_OPERA_PRED>
1.32E-08

>  <OPERA_KM_DAYS_OPERA_PRED>
0.301556

>  <OCTANOL_AIR_PARTITION_COEFF_LOGKOA_OPERA_PRED>
9.25006

>  <SOIL_ADSORPTION_COEFFICIENT_KOC_L/KG_OPERA_PRED>
51.5634

>  <OCTANOL_WATER_PARTITION_LOGP_OPERA_PRED>
2.78096

>  <MELTING_POINT_DEGC_OPERA_PRED>
32.6894

>  <VAPOR_PRESSURE_MMHG_OPERA_PRED>
0.000141537

>  <WATER_SOLUBILITY_MOL/L_OPERA_PRED>
0.00233994

>  <Shape Index>
0.6

>  <Molecular Flexibility>
0.17201

>  <Molecular Complexity>
0.63962

>  <Electronegative Atoms>
3

>  <Stereo Centers>
1

>  <Rotatable Bonds>
4

>  <Rings Closures>
1

>  <Aromatic Rings>
1

>  <Aromatic Atoms>
6

>  <Amides>
1

>  <Amines>
0

>  <Aromatic Nitrogens>
0

>  <Shape Index 2>
0.6

>  <Molecular Flexibility 2>
0.17201

>  <Molecular Complexity 2>
0.63962

>  <Non-C/H Atoms>
3

>  <Electronegative Atoms 2>
3

>  <Stereo Centers 2>
1

>  <Rotatable Bonds 2>
4

>  <Rings Closures 2>
1

>  <Aromatic Rings 2>
1

>  <Aromatic Atoms 2>
6

>  <sp3-Atoms>
6

>  <Amides 2>
1

>  <Amines 2>
0

>  <Aromatic Nitrogens 2>
0

>  <Basic Nitrogens>
0

$$$$
Dioxacarb
Actelion Java MolfileCreator 2.0

  0  0  0  0  0  0              0 V3000
M  V30 BEGIN CTAB
M  V30 COUNTS 16 17 0 0 0
M  V30 BEGIN ATOM
M  V30 1 O 0.0 0.0 0.0 0
M  V30 2 C -1.3143 -0.7459 0.0 0
M  V30 3 O -1.3261 -2.2379 0.0 0
M  V30 4 N -2.6286 0.0118 0.0 0
M  V30 5 C -0.0355 -2.972 0.0 0
M  V30 6 C -2.6405 1.5274 0.0 0
M  V30 7 C -0.0473 -4.464 0.0 0
M  V30 8 C 1.2551 -2.2142 0.0 0
M  V30 9 C 1.2432 -5.1981 0.0 0
M  V30 10 C -1.3617 -5.1981 0.0 0
M  V30 11 C 2.5457 -2.9483 0.0 0
M  V30 12 C 2.5339 -4.4403 0.0 0
M  V30 13 O -2.747 -4.5705 0.0 0
M  V30 14 O -1.5274 -6.6782 0.0 0
M  V30 15 C -3.7654 -5.6717 0.0 0
M  V30 16 C -3.0075 -6.9742 0.0 0
M  V30 END ATOM
M  V30 BEGIN BOND
M  V30 1 2 1 2
M  V30 2 1 2 3
M  V30 3 1 2 4
M  V30 4 1 3 5
M  V30 5 1 4 6
M  V30 6 2 5 7
M  V30 7 1 5 8
M  V30 8 1 7 9
M  V30 9 1 7 10
M  V30 10 2 8 11
M  V30 11 2 9 12
M  V30 12 1 10 13
M  V30 13 1 10 14
M  V30 14 1 13 15
M  V30 15 1 14 16
M  V30 16 1 11 12
M  V30 17 1 15 16
M  V30 END BOND
M  V30 END CTAB
M  END
>  <Molecule Name>
Dioxacarb

>  <Order (spectra)>
272

>  <NAME>
Dioxacarb

>  <Molecular Formula>
C11H13NO4

>  <Monoisotopic Mass>
223.084459

>  <SMILES>
CNC(=O)OC1=C(C=CC=C1)C1OCCO1

>  <InChI>
InChI=1S/C11H13NO4/c1-12-11(13)16-9-5-3-2-4-8(9)10-14-6-7-15-10/h2-5,10H,6-7H2,1H3,(H,12,13)

>  <InChIKey>
SDKQRNRRDYRQKY-UHFFFAOYSA-N

>  <Kingdom>
Organic compounds

>  <Superclass>
Benzenoids

>  <Class>
Benzene and substituted derivatives

>  <Subclass>
Phenoxy compounds

>  <Parent Level 1>
Phenoxy compounds

>  <Parent Level 2>


>  <Parent Level 3>


>  <cLogP>
0.731

>  <cLogS>
-2.062

>  <Druglikeness>
-8.9252

>  <NP-class probability>
0.2

>  <SmilesFragFp 3>


>  <MS_READY_SMILES>
CNC(=O)OC1=C(C=CC=C1)C1OCCO1

>  <MS_READY_InChI>
InChI=1S/C11H13NO4/c1-12-11(13)16-9-5-3-2-4-8(9)10-14-6-7-15-10/h2-5,10H,6-7H2,1H3,(H,12,13)

>  <QSAR_READY_SMILES>
CNC(=O)OC1=C(C=CC=C1)C1OCCO1

>  <QSAR_READY_InChI>
InChI=1S/C11H13NO4/c1-12-11(13)16-9-5-3-2-4-8(9)10-14-6-7-15-10/h2-5,10H,6-7H2,1H3,(H,12,13)

>  <DTXSID>
DTXSID2041886

>  <DTXCID>
DTXCID0021886

>  <CASRN>
6988-21-2

>  <EXPOCAST_MEDIAN_EXPOSURE_PREDICTION_MG/KG-BW/DAY>
3.48E-07

>  <BIOCONCENTRATION_FACTOR_TEST_PRED>
1.83654

>  <BOILING_POINT_DEGC_TEST_PRED>
317.626

>  <48HR_DAPHNIA_LC50_MOL/L_TEST_PRED>
6.82E-06

>  <DENSITY_G/CM^3_TEST_PRED>
1.187

>  <DEVTOX_TEST_PRED>
0.796

>  <96HR_FATHEAD_MINNOW_MOL/L_TEST_PRED>
0.000293765

>  <FLASH_POINT_DEGC_TEST_PRED>
151.462

>  <MELTING_POINT_DEGC_TEST_PRED>
100.462

>  <AMES_MUTAGENICITY_TEST_PRED>
0.754

>  <ORAL_RAT_LD50_MOL/KG_TEST_PRED>
0.000508159

>  <SURFACE_TENSION_DYN/CM_TEST_PRED>
-

>  <THERMAL_CONDUCTIVITY_MW/(M*K)_TEST_PRED>
-

>  <TETRAHYMENA_PYRIFORMIS_IGC50_MOL/L_TEST_PRED>
-

>  <VISCOSITY_CP_CP_TEST_PRED>
29.2415

>  <VAPOR_PRESSURE_MMHG_TEST_PRED>
2.51E-06

>  <WATER_SOLUBILITY_MOL/L_TEST_PRED>
0.0113501

>  <ATMOSPHERIC_HYDROXYLATION_RATE_(AOH)_CM3/MOLECULE*SEC_OPERA_PRED>
1.31E-11

>  <BIOCONCENTRATION_FACTOR_OPERA_PRED>
3.7279

>  <BIODEGRADATION_HALF_LIFE_DAYS_DAYS_OPERA_PRED>
4.65617

>  <BOILING_POINT_DEGC_OPERA_PRED>
291.456

>  <HENRYS_LAW_ATM-M3/MOLE_OPERA_PRED>
1.94E-09

>  <OPERA_KM_DAYS_OPERA_PRED>
0.0892522

>  <OCTANOL_AIR_PARTITION_COEFF_LOGKOA_OPERA_PRED>
8.89491

>  <SOIL_ADSORPTION_COEFFICIENT_KOC_L/KG_OPERA_PRED>
39.9555

>  <OCTANOL_WATER_PARTITION_LOGP_OPERA_PRED>
0.672203

>  <MELTING_POINT_DEGC_OPERA_PRED>
114.515

>  <VAPOR_PRESSURE_MMHG_OPERA_PRED>
3.03E-07

>  <WATER_SOLUBILITY_MOL/L_OPERA_PRED>
0.0270837

>  <Shape Index>
0.5625

>  <Molecular Flexibility>
0.19751

>  <Molecular Complexity>
0.67019

>  <Electronegative Atoms>
5

>  <Stereo Centers>
0

>  <Rotatable Bonds>
3

>  <Rings Closures>
2

>  <Aromatic Rings>
1

>  <Aromatic Atoms>
6

>  <Amides>
1

>  <Amines>
0

>  <Aromatic Nitrogens>
0

>  <Shape Index 2>
0.5625

>  <Molecular Flexibility 2>
0.19751

>  <Molecular Complexity 2>
0.67019

>  <Non-C/H Atoms>
5

>  <Electronegative Atoms 2>
5

>  <Stereo Centers 2>
0

>  <Rotatable Bonds 2>
3

>  <Rings Closures 2>
2

>  <Aromatic Rings 2>
1

>  <Aromatic Atoms 2>
6

>  <sp3-Atoms>
7

>  <Amides 2>
1

>  <Amines 2>
0

>  <Aromatic Nitrogens 2>
0

>  <Basic Nitrogens>
0

$$$$
Promecarb
Actelion Java MolfileCreator 2.0

  0  0  0  0  0  0              0 V3000
M  V30 BEGIN CTAB
M  V30 COUNTS 15 15 0 0 0
M  V30 BEGIN ATOM
M  V30 1 O 0.0 0.0 0.0 0
M  V30 2 C -0.0118 1.5169 0.0 0
M  V30 3 O 1.2798 2.2753 0.0 0
M  V30 4 N -1.3272 2.2753 0.0 0
M  V30 5 C 2.5716 1.5287 0.0 0
M  V30 6 C -2.6427 1.5287 0.0 0
M  V30 7 C 2.5597 0.0355 0.0 0
M  V30 8 C 3.8633 2.2872 0.0 0
M  V30 9 C 3.8515 -0.711 0.0 0
M  V30 10 C 5.1551 1.5406 0.0 0
M  V30 11 C 5.1432 0.0474 0.0 0
M  V30 12 C 3.8396 -2.2042 0.0 0
M  V30 13 C 6.4468 2.299 0.0 0
M  V30 14 C 2.5242 -2.9508 0.0 0
M  V30 15 C 5.1314 -2.9508 0.0 0
M  V30 END ATOM
M  V30 BEGIN BOND
M  V30 1 2 1 2
M  V30 2 1 2 3
M  V30 3 1 2 4
M  V30 4 1 3 5
M  V30 5 1 4 6
M  V30 6 2 5 7
M  V30 7 1 5 8
M  V30 8 1 7 9
M  V30 9 2 8 10
M  V30 10 2 9 11
M  V30 11 1 9 12
M  V30 12 1 10 13
M  V30 13 1 12 14
M  V30 14 1 12 15
M  V30 15 1 10 11
M  V30 END BOND
M  V30 END CTAB
M  END
>  <Molecule Name>
Promecarb

>  <Order (spectra)>
273

>  <NAME>
Promecarb

>  <Molecular Formula>
C12H17NO2

>  <Monoisotopic Mass>
207.125929

>  <SMILES>
CNC(=O)OC1=CC(=CC(C)=C1)C(C)C

>  <InChI>
InChI=1S/C12H17NO2/c1-8(2)10-5-9(3)6-11(7-10)15-12(14)13-4/h5-8H,1-4H3,(H,13,14)

>  <InChIKey>
DTAPQAJKAFRNJB-UHFFFAOYSA-N

>  <Kingdom>
Organic compounds

>  <Superclass>
Benzenoids

>  <Class>
Benzene and substituted derivatives

>  <Subclass>
Phenyl methylcarbamates

>  <Parent Level 1>
Phenyl methylcarbamates

>  <Parent Level 2>


>  <Parent Level 3>


>  <cLogP>
2.9062

>  <cLogS>
-3.31

>  <Druglikeness>
-3.2855

>  <NP-class probability>
0.45

>  <SmilesFragFp 3>


>  <MS_READY_SMILES>
CNC(=O)OC1=CC(=CC(C)=C1)C(C)C

>  <MS_READY_InChI>
InChI=1S/C12H17NO2/c1-8(2)10-5-9(3)6-11(7-10)15-12(14)13-4/h5-8H,1-4H3,(H,13,14)

>  <QSAR_READY_SMILES>
CNC(=O)OC1=CC(=CC(C)=C1)C(C)C

>  <QSAR_READY_InChI>
InChI=1S/C12H17NO2/c1-8(2)10-5-9(3)6-11(7-10)15-12(14)13-4/h5-8H,1-4H3,(H,13,14)

>  <DTXSID>
DTXSID4037617

>  <DTXCID>
DTXCID2017617

>  <CASRN>
2631-37-0

>  <EXPOCAST_MEDIAN_EXPOSURE_PREDICTION_MG/KG-BW/DAY>
2.90E-06

>  <BIOCONCENTRATION_FACTOR_TEST_PRED>
6.74528

>  <BOILING_POINT_DEGC_TEST_PRED>
300.252

>  <48HR_DAPHNIA_LC50_MOL/L_TEST_PRED>
2.79E-06

>  <DENSITY_G/CM^3_TEST_PRED>
1.025

>  <DEVTOX_TEST_PRED>
0.905

>  <96HR_FATHEAD_MINNOW_MOL/L_TEST_PRED>
1.85E-05

>  <FLASH_POINT_DEGC_TEST_PRED>
128.248

>  <MELTING_POINT_DEGC_TEST_PRED>
73.912

>  <AMES_MUTAGENICITY_TEST_PRED>
0.611

>  <ORAL_RAT_LD50_MOL/KG_TEST_PRED>
0.000524807

>  <SURFACE_TENSION_DYN/CM_TEST_PRED>
-

>  <THERMAL_CONDUCTIVITY_MW/(M*K)_TEST_PRED>
-

>  <TETRAHYMENA_PYRIFORMIS_IGC50_MOL/L_TEST_PRED>
0.000110662

>  <VISCOSITY_CP_CP_TEST_PRED>
28.9068

>  <VAPOR_PRESSURE_MMHG_TEST_PRED>
6.52E-05

>  <WATER_SOLUBILITY_MOL/L_TEST_PRED>
0.00102094

>  <ATMOSPHERIC_HYDROXYLATION_RATE_(AOH)_CM3/MOLECULE*SEC_OPERA_PRED>
1.41E-11

>  <BIOCONCENTRATION_FACTOR_OPERA_PRED>
9.4768

>  <BIODEGRADATION_HALF_LIFE_DAYS_DAYS_OPERA_PRED>
4.44947

>  <BOILING_POINT_DEGC_OPERA_PRED>
279.831

>  <HENRYS_LAW_ATM-M3/MOLE_OPERA_PRED>
1.44E-08

>  <OPERA_KM_DAYS_OPERA_PRED>
0.253581

>  <OCTANOL_AIR_PARTITION_COEFF_LOGKOA_OPERA_PRED>
9.28185

>  <SOIL_ADSORPTION_COEFFICIENT_KOC_L/KG_OPERA_PRED>
299.294

>  <OCTANOL_WATER_PARTITION_LOGP_OPERA_PRED>
3.0966

>  <MELTING_POINT_DEGC_OPERA_PRED>
86.4714

>  <VAPOR_PRESSURE_MMHG_OPERA_PRED>
3.03E-05

>  <WATER_SOLUBILITY_MOL/L_OPERA_PRED>
0.000442491

>  <Shape Index>
0.6

>  <Molecular Flexibility>
0.41501

>  <Molecular Complexity>
0.60067

>  <Electronegative Atoms>
3

>  <Stereo Centers>
0

>  <Rotatable Bonds>
3

>  <Rings Closures>
1

>  <Aromatic Rings>
1

>  <Aromatic Atoms>
6

>  <Amides>
1

>  <Amines>
0

>  <Aromatic Nitrogens>
0

>  <Shape Index 2>
0.6

>  <Molecular Flexibility 2>
0.41501

>  <Molecular Complexity 2>
0.60067

>  <Non-C/H Atoms>
3

>  <Electronegative Atoms 2>
3

>  <Stereo Centers 2>
0

>  <Rotatable Bonds 2>
3

>  <Rings Closures 2>
1

>  <Aromatic Rings 2>
1

>  <Aromatic Atoms 2>
6

>  <sp3-Atoms>
6

>  <Amides 2>
1

>  <Amines 2>
0

>  <Aromatic Nitrogens 2>
0

>  <Basic Nitrogens>
0

$$$$
Fenoxycarb
Actelion Java MolfileCreator 2.0

  0  0  0  0  0  0              0 V3000
M  V30 BEGIN CTAB
M  V30 COUNTS 22 23 0 0 0
M  V30 BEGIN ATOM
M  V30 1 O 0.0 0.0 0.0 0
M  V30 2 C -0.0118 -1.4919 0.0 0
M  V30 3 O 1.2787 -2.226 0.0 0
M  V30 4 N -1.3261 -2.226 0.0 0
M  V30 5 C 2.5694 -1.4682 0.0 0
M  V30 6 C -2.6404 -1.4682 0.0 0
M  V30 7 C 3.86 -2.2023 0.0 0
M  V30 8 C -3.9548 -2.2023 0.0 0
M  V30 9 O -5.2691 -1.4445 0.0 0
M  V30 10 C -6.5834 -2.1786 0.0 0
M  V30 11 C -7.8977 -1.4208 0.0 0
M  V30 12 C -6.5952 -3.6706 0.0 0
M  V30 13 C -9.212 -2.155 0.0 0
M  V30 14 C -7.9096 -4.4047 0.0 0
M  V30 15 C -9.2239 -3.6469 0.0 0
M  V30 16 O -10.5382 -4.381 0.0 0
M  V30 17 C -10.55 -5.873 0.0 0
M  V30 18 C -11.8644 -6.6071 0.0 0
M  V30 19 C -9.2594 -6.6071 0.0 0
M  V30 20 C -11.8762 -8.099 0.0 0
M  V30 21 C -9.2712 -8.099 0.0 0
M  V30 22 C -10.5856 -8.8331 0.0 0
M  V30 END ATOM
M  V30 BEGIN BOND
M  V30 1 2 1 2
M  V30 2 1 2 3
M  V30 3 1 2 4
M  V30 4 1 3 5
M  V30 5 1 4 6
M  V30 6 1 5 7
M  V30 7 1 6 8
M  V30 8 1 8 9
M  V30 9 1 9 10
M  V30 10 2 10 11
M  V30 11 1 10 12
M  V30 12 1 11 13
M  V30 13 2 12 14
M  V30 14 2 13 15
M  V30 15 1 15 16
M  V30 16 1 16 17
M  V30 17 2 17 18
M  V30 18 1 17 19
M  V30 19 1 18 20
M  V30 20 2 19 21
M  V30 21 2 20 22
M  V30 22 1 14 15
M  V30 23 1 21 22
M  V30 END BOND
M  V30 END CTAB
M  END
>  <Molecule Name>
Fenoxycarb

>  <Order (spectra)>
274

>  <NAME>
Fenoxycarb

>  <Molecular Formula>
C17H19NO4

>  <Monoisotopic Mass>
301.131409

>  <SMILES>
CCOC(=O)NCCOC1=CC=C(OC2=CC=CC=C2)C=C1

>  <InChI>
InChI=1S/C17H19NO4/c1-2-20-17(19)18-12-13-21-14-8-10-16(11-9-14)22-15-6-4-3-5-7-15/h3-11H,2,12-13H2,1H3,(H,18,19)

>  <InChIKey>
HJUFTIJOISQSKQ-UHFFFAOYSA-N

>  <Kingdom>
Organic compounds

>  <Superclass>
Benzenoids

>  <Class>
Benzene and substituted derivatives

>  <Subclass>
Diphenylethers

>  <Parent Level 1>
Diphenylethers

>  <Parent Level 2>


>  <Parent Level 3>


>  <cLogP>
3.0847

>  <cLogS>
-4.613

>  <Druglikeness>
-14.108

>  <NP-class probability>
0.14

>  <SmilesFragFp 3>


>  <MS_READY_SMILES>
CCOC(=O)NCCOC1=CC=C(OC2=CC=CC=C2)C=C1

>  <MS_READY_InChI>
InChI=1S/C17H19NO4/c1-2-20-17(19)18-12-13-21-14-8-10-16(11-9-14)22-15-6-4-3-5-7-15/h3-11H,2,12-13H2,1H3,(H,18,19)

>  <QSAR_READY_SMILES>
CCOC(=O)NCCOC1=CC=C(OC2=CC=CC=C2)C=C1

>  <QSAR_READY_InChI>
InChI=1S/C17H19NO4/c1-2-20-17(19)18-12-13-21-14-8-10-16(11-9-14)22-15-6-4-3-5-7-15/h3-11H,2,12-13H2,1H3,(H,18,19)

>  <DTXSID>
DTXSID7032393

>  <DTXCID>
DTXCID5012393

>  <CASRN>
72490-01-8

>  <EXPOCAST_MEDIAN_EXPOSURE_PREDICTION_MG/KG-BW/DAY>
4.91E-07

>  <BIOCONCENTRATION_FACTOR_TEST_PRED>
21.2814

>  <BOILING_POINT_DEGC_TEST_PRED>
387.435

>  <48HR_DAPHNIA_LC50_MOL/L_TEST_PRED>
3.76E-06

>  <DENSITY_G/CM^3_TEST_PRED>
1.199

>  <DEVTOX_TEST_PRED>
0.858

>  <96HR_FATHEAD_MINNOW_MOL/L_TEST_PRED>
2.64E-06

>  <FLASH_POINT_DEGC_TEST_PRED>
237.462

>  <MELTING_POINT_DEGC_TEST_PRED>
73.721

>  <AMES_MUTAGENICITY_TEST_PRED>
0.632

>  <ORAL_RAT_LD50_MOL/KG_TEST_PRED>
0.00671429

>  <SURFACE_TENSION_DYN/CM_TEST_PRED>
-

>  <THERMAL_CONDUCTIVITY_MW/(M*K)_TEST_PRED>
-

>  <TETRAHYMENA_PYRIFORMIS_IGC50_MOL/L_TEST_PRED>
-

>  <VISCOSITY_CP_CP_TEST_PRED>
-

>  <VAPOR_PRESSURE_MMHG_TEST_PRED>
2.62E-08

>  <WATER_SOLUBILITY_MOL/L_TEST_PRED>
1.80E-05

>  <ATMOSPHERIC_HYDROXYLATION_RATE_(AOH)_CM3/MOLECULE*SEC_OPERA_PRED>
1.67E-11

>  <BIOCONCENTRATION_FACTOR_OPERA_PRED>
18.2541

>  <BIODEGRADATION_HALF_LIFE_DAYS_DAYS_OPERA_PRED>
5.14604

>  <BOILING_POINT_DEGC_OPERA_PRED>
315.079

>  <HENRYS_LAW_ATM-M3/MOLE_OPERA_PRED>
4.86E-10

>  <OPERA_KM_DAYS_OPERA_PRED>
0.445006

>  <OCTANOL_AIR_PARTITION_COEFF_LOGKOA_OPERA_PRED>
10.9359

>  <SOIL_ADSORPTION_COEFFICIENT_KOC_L/KG_OPERA_PRED>
1000.64

>  <OCTANOL_WATER_PARTITION_LOGP_OPERA_PRED>
4.29686

>  <MELTING_POINT_DEGC_OPERA_PRED>
53.3842

>  <VAPOR_PRESSURE_MMHG_OPERA_PRED>
3.24E-08

>  <WATER_SOLUBILITY_MOL/L_OPERA_PRED>
2.08E-05

>  <Shape Index>
0.77273

>  <Molecular Flexibility>
0.58073

>  <Molecular Complexity>
0.58727

>  <Electronegative Atoms>
5

>  <Stereo Centers>
0

>  <Rotatable Bonds>
8

>  <Rings Closures>
2

>  <Aromatic Rings>
2

>  <Aromatic Atoms>
12

>  <Amides>
1

>  <Amines>
0

>  <Aromatic Nitrogens>
0

>  <Shape Index 2>
0.77273

>  <Molecular Flexibility 2>
0.58073

>  <Molecular Complexity 2>
0.58727

>  <Non-C/H Atoms>
5

>  <Electronegative Atoms 2>
5

>  <Stereo Centers 2>
0

>  <Rotatable Bonds 2>
8

>  <Rings Closures 2>
2

>  <Aromatic Rings 2>
2

>  <Aromatic Atoms 2>
12

>  <sp3-Atoms>
7

>  <Amides 2>
1

>  <Amines 2>
0

>  <Aromatic Nitrogens 2>
0

>  <Basic Nitrogens>
0

$$$$
Indoxacarb
Actelion Java MolfileCreator 2.0

  0  0  0  0  0  0              0 V3000
M  V30 BEGIN CTAB
M  V30 COUNTS 36 39 0 0 0
M  V30 BEGIN ATOM
M  V30 1 Cl 0.0 0.0 0.0 0
M  V30 2 C -0.6259 -1.3581 0.0 0
M  V30 3 C 0.248 -2.5628 0.0 0
M  V30 4 C -2.1258 -1.4999 0.0 0
M  V30 5 C -0.3779 -3.921 0.0 0
M  V30 6 C -2.7518 -2.858 0.0 0
M  V30 7 C -1.8778 -4.0627 0.0 0
M  V30 8 C 0.2243 -5.2792 0.0 0
M  V30 9 C -2.1967 -5.5154 0.0 0
M  V30 10 C -0.8975 -6.2712 0.0 0 CFG=1
M  V30 11 N -3.5076 -6.2594 0.0 0
M  V30 12 O -0.9093 -7.7593 0.0 0
M  V30 13 C 0.4606 -6.8736 0.0 0
M  V30 14 N -3.5194 -7.7475 0.0 0
M  V30 15 C -2.2203 -8.4916 0.0 0
M  V30 16 O 1.6652 -5.976 0.0 0
M  V30 17 O 0.6023 -8.3498 0.0 0
M  V30 18 C -4.8304 -8.4916 0.0 0
M  V30 19 C 1.9605 -8.9522 0.0 0
M  V30 20 O -4.8422 -9.9797 0.0 0
M  V30 21 N -6.1413 -7.7357 0.0 0
M  V30 22 C -6.1531 -6.224 0.0 0
M  V30 23 C -7.4523 -8.4798 0.0 0
M  V30 24 C -4.8658 -5.4681 0.0 0
M  V30 25 C -7.4641 -5.4681 0.0 0
M  V30 26 O -7.4641 -9.9679 0.0 0
M  V30 27 O -8.7632 -7.7239 0.0 0
M  V30 28 C -4.8776 -3.9564 0.0 0
M  V30 29 C -7.4759 -3.9564 0.0 0
M  V30 30 C -10.0742 -8.468 0.0 0
M  V30 31 C -6.1886 -3.2005 0.0 0
M  V30 32 O -6.2004 -1.6888 0.0 0
M  V30 33 C -7.5113 -0.933 0.0 0
M  V30 34 F -8.2672 -2.2203 0.0 0
M  V30 35 F -8.8223 -0.1771 0.0 0
M  V30 36 F -6.7673 0.3779 0.0 0
M  V30 END ATOM
M  V30 BEGIN BOND
M  V30 1 1 1 2
M  V30 2 2 2 3
M  V30 3 1 2 4
M  V30 4 1 3 5
M  V30 5 2 4 6
M  V30 6 2 5 7
M  V30 7 1 5 8
M  V30 8 1 7 9
M  V30 9 1 8 10
M  V30 10 2 9 11
M  V30 11 1 10 12
M  V30 12 1 10 13 CFG=1
M  V30 13 1 11 14
M  V30 14 1 12 15
M  V30 15 2 13 16
M  V30 16 1 13 17
M  V30 17 1 14 18
M  V30 18 1 17 19
M  V30 19 2 18 20
M  V30 20 1 18 21
M  V30 21 1 21 22
M  V30 22 1 21 23
M  V30 23 2 22 24
M  V30 24 1 22 25
M  V30 25 2 23 26
M  V30 26 1 23 27
M  V30 27 1 24 28
M  V30 28 2 25 29
M  V30 29 1 27 30
M  V30 30 2 28 31
M  V30 31 1 31 32
M  V30 32 1 32 33
M  V30 33 1 33 34
M  V30 34 1 33 35
M  V30 35 1 33 36
M  V30 36 1 6 7
M  V30 37 1 9 10
M  V30 38 1 14 15
M  V30 39 1 29 31
M  V30 END BOND
M  V30 BEGIN COLLECTION
M  V30 MDLV30/STEABS ATOMS=(1 10)
M  V30 END COLLECTION
M  V30 END CTAB
M  END
>  <Molecule Name>
Indoxacarb

>  <Order (spectra)>
275

>  <NAME>
Indoxacarb

>  <Molecular Formula>
C22H17N3O7ClF3

>  <Monoisotopic Mass>
527.070713

>  <SMILES>
COC(=O)N(C(=O)N1CO[C@]2(CC3=C(C=CC(Cl)=C3)C2=N1)C(=O)OC)C1=CC=C(OC(F)(F)F)C=C1

>  <InChI>
InChI=1S/C22H17ClF3N3O7/c1-33-18(30)21-10-12-9-13(23)3-8-16(12)17(21)27-28(11-35-21)19(31)29(20(32)34-2)14-4-6-15(7-5-14)36-22(24,25)26/h3-9H,10-11H2,1-2H3/t21-/m0/s1

>  <InChIKey>
VBCVPMMZEGZULK-NRFANRHFSA-N

>  <Kingdom>
Organic compounds

>  <Superclass>
Benzenoids

>  <Class>
Benzene and substituted derivatives

>  <Subclass>
Phenylcarbamic acid esters

>  <Parent Level 1>
Phenylcarbamic acid esters

>  <Parent Level 2>


>  <Parent Level 3>


>  <cLogP>
4.5389

>  <cLogS>
-6.859

>  <Druglikeness>
-8.326

>  <NP-class probability>
0.05

>  <SmilesFragFp 3>


>  <MS_READY_SMILES>
COC(=O)N(C(=O)N1COC2(CC3=C(C=CC(Cl)=C3)C2=N1)C(=O)OC)C1=CC=C(OC(F)(F)F)C=C1

>  <MS_READY_InChI>
InChI=1S/C22H17ClF3N3O7/c1-33-18(30)21-10-12-9-13(23)3-8-16(12)17(21)27-28(11-35-21)19(31)29(20(32)34-2)14-4-6-15(7-5-14)36-22(24,25)26/h3-9H,10-11H2,1-2H3/t21-/m1/s1

>  <QSAR_READY_SMILES>
COC(=O)N(C(=O)N1COC2(CC3=C(C=CC(Cl)=C3)C2=N1)C(=O)OC)C1=CC=C(OC(F)(F)F)C=C1

>  <QSAR_READY_InChI>
InChI=1S/C22H17ClF3N3O7/c1-33-18(30)21-10-12-9-13(23)3-8-16(12)17(21)27-28(11-35-21)19(31)29(20(32)34-2)14-4-6-15(7-5-14)36-22(24,25)26/h3-9H,10-11H2,1-2H3/t21-/m1/s1

>  <DTXSID>
DTXSID1032690

>  <DTXCID>
DTXCID9012690

>  <CASRN>
173584-44-6

>  <EXPOCAST_MEDIAN_EXPOSURE_PREDICTION_MG/KG-BW/DAY>
9.92E-08

>  <BIOCONCENTRATION_FACTOR_TEST_PRED>
36.7282

>  <BOILING_POINT_DEGC_TEST_PRED>
-

>  <48HR_DAPHNIA_LC50_MOL/L_TEST_PRED>
8.39E-08

>  <DENSITY_G/CM^3_TEST_PRED>
1.618

>  <DEVTOX_TEST_PRED>
1.1

>  <96HR_FATHEAD_MINNOW_MOL/L_TEST_PRED>
1.11E-07

>  <FLASH_POINT_DEGC_TEST_PRED>
314.755

>  <MELTING_POINT_DEGC_TEST_PRED>
163.757

>  <AMES_MUTAGENICITY_TEST_PRED>
0.589

>  <ORAL_RAT_LD50_MOL/KG_TEST_PRED>
0.00077983

>  <SURFACE_TENSION_DYN/CM_TEST_PRED>
-

>  <THERMAL_CONDUCTIVITY_MW/(M*K)_TEST_PRED>
-

>  <TETRAHYMENA_PYRIFORMIS_IGC50_MOL/L_TEST_PRED>
-

>  <VISCOSITY_CP_CP_TEST_PRED>
-

>  <VAPOR_PRESSURE_MMHG_TEST_PRED>
8.99E-11

>  <WATER_SOLUBILITY_MOL/L_TEST_PRED>
2.11E-06

>  <ATMOSPHERIC_HYDROXYLATION_RATE_(AOH)_CM3/MOLECULE*SEC_OPERA_PRED>
2.08E-11

>  <BIOCONCENTRATION_FACTOR_OPERA_PRED>
4.58268

>  <BIODEGRADATION_HALF_LIFE_DAYS_DAYS_OPERA_PRED>
5.69196

>  <BOILING_POINT_DEGC_OPERA_PRED>
349.973

>  <HENRYS_LAW_ATM-M3/MOLE_OPERA_PRED>
2.16E-08

>  <OPERA_KM_DAYS_OPERA_PRED>
6.27325

>  <OCTANOL_AIR_PARTITION_COEFF_LOGKOA_OPERA_PRED>
11.6823

>  <SOIL_ADSORPTION_COEFFICIENT_KOC_L/KG_OPERA_PRED>
4317.56

>  <OCTANOL_WATER_PARTITION_LOGP_OPERA_PRED>
4.64653

>  <MELTING_POINT_DEGC_OPERA_PRED>
140.45

>  <VAPOR_PRESSURE_MMHG_OPERA_PRED>
2.35E-10

>  <WATER_SOLUBILITY_MOL/L_OPERA_PRED>
3.83E-07

>  <Shape Index>
0.47222

>  <Molecular Flexibility>
0.45204

>  <Molecular Complexity>
0.98262

>  <Electronegative Atoms>
14

>  <Stereo Centers>
1

>  <Rotatable Bonds>
6

>  <Rings Closures>
4

>  <Aromatic Rings>
2

>  <Aromatic Atoms>
12

>  <Amides>
1

>  <Amines>
0

>  <Aromatic Nitrogens>
0

>  <Shape Index 2>
0.47222

>  <Molecular Flexibility 2>
0.45204

>  <Molecular Complexity 2>
0.98262

>  <Non-C/H Atoms>
14

>  <Electronegative Atoms 2>
14

>  <Stereo Centers 2>
1

>  <Rotatable Bonds 2>
6

>  <Rings Closures 2>
4

>  <Aromatic Rings 2>
2

>  <Aromatic Atoms 2>
12

>  <sp3-Atoms>
10

>  <Amides 2>
1

>  <Amines 2>
0

>  <Aromatic Nitrogens 2>
0

>  <Basic Nitrogens>
0

$$$$
Azoxystrobin
Actelion Java MolfileCreator 2.0

  0  0  0  0  0  0              0 V3000
M  V30 BEGIN CTAB
M  V30 COUNTS 30 32 0 0 0
M  V30 BEGIN ATOM
M  V30 1 O 0.0 0.0 0.0 0
M  V30 2 C -0.0117 1.5078 0.0 0
M  V30 3 O 1.2722 2.2617 0.0 0
M  V30 4 C -1.3193 2.2617 0.0 0
M  V30 5 C 2.5562 1.5195 0.0 0
M  V30 6 C -1.3311 3.7695 0.0 0
M  V30 7 C -2.6268 1.5195 0.0 0
M  V30 8 C -0.0471 4.5234 0.0 0
M  V30 9 C -2.6386 4.5234 0.0 0
M  V30 10 O -3.9344 2.2734 0.0 0
M  V30 11 O 1.2368 3.7813 0.0 0
M  V30 12 C -0.0588 6.0312 0.0 0
M  V30 13 C -2.6504 6.0312 0.0 0
M  V30 14 C -5.2419 1.5313 0.0 0
M  V30 15 C 2.5208 4.5469 0.0 0
M  V30 16 C -1.3664 6.7851 0.0 0
M  V30 17 N 3.8048 3.8048 0.0 0
M  V30 18 C 2.509 6.0547 0.0 0
M  V30 19 C 5.0888 4.5705 0.0 0
M  V30 20 C 3.793 6.8086 0.0 0
M  V30 21 N 5.077 6.0783 0.0 0
M  V30 22 O 3.7813 8.3165 0.0 0
M  V30 23 C 2.4737 9.0704 0.0 0
M  V30 24 C 2.4619 10.5782 0.0 0
M  V30 25 C 1.1661 8.34 0.0 0
M  V30 26 C 3.7459 11.3321 0.0 0
M  V30 27 C 1.1544 11.3439 0.0 0
M  V30 28 C -0.1413 9.0939 0.0 0
M  V30 29 N 5.0299 12.086 0.0 0
M  V30 30 C -0.1531 10.6017 0.0 0
M  V30 END ATOM
M  V30 BEGIN BOND
M  V30 1 2 1 2
M  V30 2 1 2 3
M  V30 3 1 2 4
M  V30 4 1 3 5
M  V30 5 1 4 6
M  V30 6 2 4 7
M  V30 7 2 6 8
M  V30 8 1 6 9
M  V30 9 1 7 10
M  V30 10 1 8 11
M  V30 11 1 8 12
M  V30 12 2 9 13
M  V30 13 1 10 14
M  V30 14 1 11 15
M  V30 15 2 12 16
M  V30 16 2 15 17
M  V30 17 1 15 18
M  V30 18 1 17 19
M  V30 19 2 18 20
M  V30 20 2 19 21
M  V30 21 1 20 22
M  V30 22 1 22 23
M  V30 23 2 23 24
M  V30 24 1 23 25
M  V30 25 1 24 26
M  V30 26 1 24 27
M  V30 27 2 25 28
M  V30 28 3 26 29
M  V30 29 2 27 30
M  V30 30 1 13 16
M  V30 31 1 20 21
M  V30 32 1 28 30
M  V30 END BOND
M  V30 END CTAB
M  END
>  <Molecule Name>
Azoxystrobin

>  <Order (spectra)>
277

>  <NAME>
Azoxystrobin

>  <Molecular Formula>
C22H17N3O5

>  <Monoisotopic Mass>
403.116822

>  <SMILES>
CO\C=C(\C(=O)OC)C1=CC=CC=C1OC1=CC(OC2=CC=CC=C2C#N)=NC=N1

>  <InChI>
InChI=1S/C22H17N3O5/c1-27-13-17(22(26)28-2)16-8-4-6-10-19(16)30-21-11-20(24-14-25-21)29-18-9-5-3-7-15(18)12-23/h3-11,13-14H,1-2H3

>  <InChIKey>
WFDXOXNFNRHQEC-GHRIWEEISA-N

>  <Kingdom>
Organic compounds

>  <Superclass>
Benzenoids

>  <Class>
Benzene and substituted derivatives

>  <Subclass>
Phenyl-beta-methoxyacrylates

>  <Parent Level 1>
Phenyl-beta-methoxyacrylates

>  <Parent Level 2>


>  <Parent Level 3>


>  <cLogP>
2.9412

>  <cLogS>
-7.072

>  <Druglikeness>
-6.5997

>  <NP-class probability>
0.29

>  <SmilesFragFp 3>


>  <MS_READY_SMILES>
COC=C(C(=O)OC)C1=CC=CC=C1OC1=CC(OC2=CC=CC=C2C#N)=NC=N1

>  <MS_READY_InChI>
InChI=1S/C22H17N3O5/c1-27-13-17(22(26)28-2)16-8-4-6-10-19(16)30-21-11-20(24-14-25-21)29-18-9-5-3-7-15(18)12-23/h3-11,13-14H,1-2H3

>  <QSAR_READY_SMILES>
COC=C(C(=O)OC)C1=CC=CC=C1OC1=CC(OC2=CC=CC=C2C#N)=NC=N1

>  <QSAR_READY_InChI>
InChI=1S/C22H17N3O5/c1-27-13-17(22(26)28-2)16-8-4-6-10-19(16)30-21-11-20(24-14-25-21)29-18-9-5-3-7-15(18)12-23/h3-11,13-14H,1-2H3

>  <DTXSID>
DTXSID0032520

>  <DTXCID>
DTXCID8012520

>  <CASRN>
131860-33-8

>  <EXPOCAST_MEDIAN_EXPOSURE_PREDICTION_MG/KG-BW/DAY>
1.62E-07

>  <BIOCONCENTRATION_FACTOR_TEST_PRED>
-

>  <BOILING_POINT_DEGC_TEST_PRED>
474.033

>  <48HR_DAPHNIA_LC50_MOL/L_TEST_PRED>
9.20E-07

>  <DENSITY_G/CM^3_TEST_PRED>
1.341

>  <DEVTOX_TEST_PRED>
0.961

>  <96HR_FATHEAD_MINNOW_MOL/L_TEST_PRED>
4.22E-07

>  <FLASH_POINT_DEGC_TEST_PRED>
269.559

>  <MELTING_POINT_DEGC_TEST_PRED>
121.192

>  <AMES_MUTAGENICITY_TEST_PRED>
0.199

>  <ORAL_RAT_LD50_MOL/KG_TEST_PRED>
0.00105196

>  <SURFACE_TENSION_DYN/CM_TEST_PRED>
-

>  <THERMAL_CONDUCTIVITY_MW/(M*K)_TEST_PRED>
-

>  <TETRAHYMENA_PYRIFORMIS_IGC50_MOL/L_TEST_PRED>
5.13E-05

>  <VISCOSITY_CP_CP_TEST_PRED>
-

>  <VAPOR_PRESSURE_MMHG_TEST_PRED>
9.42E-11

>  <WATER_SOLUBILITY_MOL/L_TEST_PRED>
1.54E-06

>  <ATMOSPHERIC_HYDROXYLATION_RATE_(AOH)_CM3/MOLECULE*SEC_OPERA_PRED>
1.68E-11

>  <BIOCONCENTRATION_FACTOR_OPERA_PRED>
12.6901

>  <BIODEGRADATION_HALF_LIFE_DAYS_DAYS_OPERA_PRED>
5.68791

>  <BOILING_POINT_DEGC_OPERA_PRED>
359.044

>  <HENRYS_LAW_ATM-M3/MOLE_OPERA_PRED>
3.38E-09

>  <OPERA_KM_DAYS_OPERA_PRED>
2.3119

>  <OCTANOL_AIR_PARTITION_COEFF_LOGKOA_OPERA_PRED>
11.6865

>  <SOIL_ADSORPTION_COEFFICIENT_KOC_L/KG_OPERA_PRED>
5514.34

>  <OCTANOL_WATER_PARTITION_LOGP_OPERA_PRED>
2.50285

>  <MELTING_POINT_DEGC_OPERA_PRED>
115.99

>  <VAPOR_PRESSURE_MMHG_OPERA_PRED>
8.33E-13

>  <WATER_SOLUBILITY_MOL/L_OPERA_PRED>
1.57E-05

>  <Shape Index>
0.5

>  <Molecular Flexibility>
0.49569

>  <Molecular Complexity>
0.82887

>  <Electronegative Atoms>
8

>  <Stereo Centers>
0

>  <Rotatable Bonds>
8

>  <Rings Closures>
3

>  <Aromatic Rings>
3

>  <Aromatic Atoms>
18

>  <Amides>
0

>  <Amines>
0

>  <Aromatic Nitrogens>
2

>  <Shape Index 2>
0.5

>  <Molecular Flexibility 2>
0.49569

>  <Molecular Complexity 2>
0.82887

>  <Non-C/H Atoms>
8

>  <Electronegative Atoms 2>
8

>  <Stereo Centers 2>
0

>  <Rotatable Bonds 2>
8

>  <Rings Closures 2>
3

>  <Aromatic Rings 2>
3

>  <Aromatic Atoms 2>
18

>  <sp3-Atoms>
6

>  <Amides 2>
0

>  <Amines 2>
0

>  <Aromatic Nitrogens 2>
2

>  <Basic Nitrogens>
0

$$$$
Benzoximate
Actelion Java MolfileCreator 2.0

  0  0  0  0  0  0              0 V3000
M  V30 BEGIN CTAB
M  V30 COUNTS 25 26 0 0 0
M  V30 BEGIN ATOM
M  V30 1 Cl 0.0 0.0 0.0 0
M  V30 2 C 1.2869 0.7556 0.0 0
M  V30 3 C 1.2751 2.2668 0.0 0
M  V30 4 C 2.5738 0.0236 0.0 0
M  V30 5 O -0.0354 3.0224 0.0 0
M  V30 6 C 2.562 3.0224 0.0 0
M  V30 7 C 3.8607 0.7792 0.0 0
M  V30 8 C -1.3459 2.2904 0.0 0
M  V30 9 C 3.8489 2.2904 0.0 0
M  V30 10 C 2.5502 4.5336 0.0 0
M  V30 11 O 5.1358 3.046 0.0 0
M  V30 12 O 3.8371 5.2893 0.0 0
M  V30 13 N 1.2396 5.2893 0.0 0
M  V30 14 C 5.124 4.5573 0.0 0
M  V30 15 C 3.8253 6.8005 0.0 0
M  V30 16 O -0.0708 4.5573 0.0 0
M  V30 17 O 2.5147 7.5679 0.0 0
M  V30 18 C 5.1122 7.5561 0.0 0
M  V30 19 C -1.3813 5.3129 0.0 0
M  V30 20 C 6.3991 6.8241 0.0 0
M  V30 21 C 5.1004 9.0673 0.0 0
M  V30 22 C -2.6918 4.5809 0.0 0
M  V30 23 C 7.686 7.5797 0.0 0
M  V30 24 C 6.3873 9.8229 0.0 0
M  V30 25 C 7.6742 9.0909 0.0 0
M  V30 END ATOM
M  V30 BEGIN BOND
M  V30 1 1 1 2
M  V30 2 2 2 3
M  V30 3 1 2 4
M  V30 4 1 3 5
M  V30 5 1 3 6
M  V30 6 2 4 7
M  V30 7 1 5 8
M  V30 8 2 6 9
M  V30 9 1 6 10
M  V30 10 1 9 11
M  V30 11 1 10 12
M  V30 12 2 10 13 CFG=2
M  V30 13 1 11 14
M  V30 14 1 12 15
M  V30 15 1 13 16
M  V30 16 2 15 17
M  V30 17 1 15 18
M  V30 18 1 16 19
M  V30 19 2 18 20
M  V30 20 1 18 21
M  V30 21 1 19 22
M  V30 22 1 20 23
M  V30 23 2 21 24
M  V30 24 2 23 25
M  V30 25 1 7 9
M  V30 26 1 24 25
M  V30 END BOND
M  V30 END CTAB
M  END
>  <Molecule Name>
Benzoximate

>  <Order (spectra)>
279

>  <NAME>
Benzoximate

>  <Molecular Formula>
C18H18NO5Cl

>  <Monoisotopic Mass>
363.087351

>  <SMILES>
CCON=C(OC(=O)C1=CC=CC=C1)C1=C(OC)C=CC(Cl)=C1OC

>  <InChI>
InChI=1S/C18H18ClNO5/c1-4-24-20-17(25-18(21)12-8-6-5-7-9-12)15-14(22-2)11-10-13(19)16(15)23-3/h5-11H,4H2,1-3H3

>  <InChIKey>
BZMIHNKNQJJVRO-UHFFFAOYSA-N

>  <Kingdom>
Organic compounds

>  <Superclass>
Benzenoids

>  <Class>
Benzene and substituted derivatives

>  <Subclass>
Benzyloxycarbonyls

>  <Parent Level 1>
Benzyloxycarbonyls

>  <Parent Level 2>


>  <Parent Level 3>


>  <cLogP>
4.7701

>  <cLogS>
-4.66

>  <Druglikeness>
-0.5815

>  <NP-class probability>
0.05

>  <SmilesFragFp 3>


>  <MS_READY_SMILES>
CCON=C(OC(=O)C1=CC=CC=C1)C1=C(OC)C=CC(Cl)=C1OC

>  <MS_READY_InChI>
InChI=1S/C18H18ClNO5/c1-4-24-20-17(25-18(21)12-8-6-5-7-9-12)15-14(22-2)11-10-13(19)16(15)23-3/h5-11H,4H2,1-3H3

>  <QSAR_READY_SMILES>
CCON=C(OC(=O)C1=CC=CC=C1)C1=C(OC)C=CC(Cl)=C1OC

>  <QSAR_READY_InChI>
InChI=1S/C18H18ClNO5/c1-4-24-20-17(25-18(21)12-8-6-5-7-9-12)15-14(22-2)11-10-13(19)16(15)23-3/h5-11H,4H2,1-3H3

>  <DTXSID>
DTXSID8041660

>  <DTXCID>
DTXCID20810108

>  <CASRN>
29104-30-1

>  <EXPOCAST_MEDIAN_EXPOSURE_PREDICTION_MG/KG-BW/DAY>
1.75E-07

>  <BIOCONCENTRATION_FACTOR_TEST_PRED>
52.723

>  <BOILING_POINT_DEGC_TEST_PRED>
-

>  <48HR_DAPHNIA_LC50_MOL/L_TEST_PRED>
4.85E-06

>  <DENSITY_G/CM^3_TEST_PRED>
-

>  <DEVTOX_TEST_PRED>
0.843

>  <96HR_FATHEAD_MINNOW_MOL/L_TEST_PRED>
-

>  <FLASH_POINT_DEGC_TEST_PRED>
-

>  <MELTING_POINT_DEGC_TEST_PRED>
68.751

>  <AMES_MUTAGENICITY_TEST_PRED>
0.325

>  <ORAL_RAT_LD50_MOL/KG_TEST_PRED>
0.0108643

>  <SURFACE_TENSION_DYN/CM_TEST_PRED>
-

>  <THERMAL_CONDUCTIVITY_MW/(M*K)_TEST_PRED>
-

>  <TETRAHYMENA_PYRIFORMIS_IGC50_MOL/L_TEST_PRED>
-

>  <VISCOSITY_CP_CP_TEST_PRED>
-

>  <VAPOR_PRESSURE_MMHG_TEST_PRED>
1.54E-06

>  <WATER_SOLUBILITY_MOL/L_TEST_PRED>
3.13E-05

>  <ATMOSPHERIC_HYDROXYLATION_RATE_(AOH)_CM3/MOLECULE*SEC_OPERA_PRED>
1.73E-11

>  <BIOCONCENTRATION_FACTOR_OPERA_PRED>
341.638

>  <BIODEGRADATION_HALF_LIFE_DAYS_DAYS_OPERA_PRED>
4.29554

>  <BOILING_POINT_DEGC_OPERA_PRED>
371.687

>  <HENRYS_LAW_ATM-M3/MOLE_OPERA_PRED>
2.18E-09

>  <OPERA_KM_DAYS_OPERA_PRED>
1.27983

>  <OCTANOL_AIR_PARTITION_COEFF_LOGKOA_OPERA_PRED>
9.97724

>  <SOIL_ADSORPTION_COEFFICIENT_KOC_L/KG_OPERA_PRED>
580.146

>  <OCTANOL_WATER_PARTITION_LOGP_OPERA_PRED>
3.72849

>  <MELTING_POINT_DEGC_OPERA_PRED>
73.021

>  <VAPOR_PRESSURE_MMHG_OPERA_PRED>
3.35E-06

>  <WATER_SOLUBILITY_MOL/L_OPERA_PRED>
8.24E-05

>  <Shape Index>
0.44

>  <Molecular Flexibility>
0.37133

>  <Molecular Complexity>
0.84127

>  <Electronegative Atoms>
7

>  <Stereo Centers>
0

>  <Rotatable Bonds>
8

>  <Rings Closures>
2

>  <Aromatic Rings>
2

>  <Aromatic Atoms>
12

>  <Amides>
0

>  <Amines>
0

>  <Aromatic Nitrogens>
0

>  <Shape Index 2>
0.44

>  <Molecular Flexibility 2>
0.37133

>  <Molecular Complexity 2>
0.84127

>  <Non-C/H Atoms>
7

>  <Electronegative Atoms 2>
7

>  <Stereo Centers 2>
0

>  <Rotatable Bonds 2>
8

>  <Rings Closures 2>
2

>  <Aromatic Rings 2>
2

>  <Aromatic Atoms 2>
12

>  <sp3-Atoms>
8

>  <Amides 2>
0

>  <Amines 2>
0

>  <Aromatic Nitrogens 2>
0

>  <Basic Nitrogens>
0

$$$$
Boscalid
Actelion Java MolfileCreator 2.0

  0  0  0  0  0  0              0 V3000
M  V30 BEGIN CTAB
M  V30 COUNTS 23 25 0 0 0
M  V30 BEGIN ATOM
M  V30 1 Cl 0.0 0.0 0.0 0
M  V30 2 C -0.0117 1.5065 0.0 0
M  V30 3 N 1.2711 2.2598 0.0 0
M  V30 4 C -1.3182 2.2598 0.0 0
M  V30 5 C 1.2593 3.7663 0.0 0
M  V30 6 C -2.6246 1.53 0.0 0
M  V30 7 C -1.3299 3.7663 0.0 0
M  V30 8 C -0.047 4.5196 0.0 0
M  V30 9 O -2.6364 0.047 0.0 0
M  V30 10 N -3.9311 2.2833 0.0 0
M  V30 11 C -5.2375 1.5536 0.0 0
M  V30 12 C -6.544 2.3068 0.0 0
M  V30 13 C -5.2493 0.0706 0.0 0
M  V30 14 C -6.5557 3.8134 0.0 0
M  V30 15 C -7.8504 1.5771 0.0 0
M  V30 16 C -6.5557 -0.6591 0.0 0
M  V30 17 C -5.2728 4.5666 0.0 0
M  V30 18 C -7.8622 4.5666 0.0 0
M  V30 19 C -7.8622 0.0941 0.0 0
M  V30 20 C -5.2846 6.0732 0.0 0
M  V30 21 C -7.8739 6.0732 0.0 0
M  V30 22 C -6.591 6.8382 0.0 0
M  V30 23 Cl -6.6028 8.3447 0.0 0
M  V30 END ATOM
M  V30 BEGIN BOND
M  V30 1 1 1 2
M  V30 2 2 2 3
M  V30 3 1 2 4
M  V30 4 1 3 5
M  V30 5 1 4 6
M  V30 6 2 4 7
M  V30 7 2 5 8
M  V30 8 2 6 9
M  V30 9 1 6 10
M  V30 10 1 10 11
M  V30 11 2 11 12
M  V30 12 1 11 13
M  V30 13 1 12 14
M  V30 14 1 12 15
M  V30 15 2 13 16
M  V30 16 2 14 17
M  V30 17 1 14 18
M  V30 18 2 15 19
M  V30 19 1 17 20
M  V30 20 2 18 21
M  V30 21 2 20 22
M  V30 22 1 22 23
M  V30 23 1 7 8
M  V30 24 1 16 19
M  V30 25 1 21 22
M  V30 END BOND
M  V30 END CTAB
M  END
>  <Molecule Name>
Boscalid

>  <Order (spectra)>
280

>  <NAME>
Boscalid

>  <Molecular Formula>
C18H12N2OCl2

>  <Monoisotopic Mass>
342.032667

>  <SMILES>
ClC1=CC=C(C=C1)C1=C(NC(=O)C2=C(Cl)N=CC=C2)C=CC=C1

>  <InChI>
InChI=1S/C18H12Cl2N2O/c19-13-9-7-12(8-10-13)14-4-1-2-6-16(14)22-18(23)15-5-3-11-21-17(15)20/h1-11H,(H,22,23)

>  <InChIKey>
WYEMLYFITZORAB-UHFFFAOYSA-N

>  <Kingdom>
Organic compounds

>  <Superclass>
Benzenoids

>  <Class>
Benzene and substituted derivatives

>  <Subclass>
Anilides

>  <Parent Level 1>
Aromatic anilides

>  <Parent Level 2>


>  <Parent Level 3>


>  <cLogP>
4.7748

>  <cLogS>
-5.654

>  <Druglikeness>
0.80975

>  <NP-class probability>
0

>  <SmilesFragFp 3>


>  <MS_READY_SMILES>
ClC1=CC=C(C=C1)C1=C(NC(=O)C2=C(Cl)N=CC=C2)C=CC=C1

>  <MS_READY_InChI>
InChI=1S/C18H12Cl2N2O/c19-13-9-7-12(8-10-13)14-4-1-2-6-16(14)22-18(23)15-5-3-11-21-17(15)20/h1-11H,(H,22,23)

>  <QSAR_READY_SMILES>
ClC1=CC=C(C=C1)C1=C(NC(=O)C2=C(Cl)N=CC=C2)C=CC=C1

>  <QSAR_READY_InChI>
InChI=1S/C18H12Cl2N2O/c19-13-9-7-12(8-10-13)14-4-1-2-6-16(14)22-18(23)15-5-3-11-21-17(15)20/h1-11H,(H,22,23)

>  <DTXSID>
DTXSID6034392

>  <DTXCID>
DTXCID4014392

>  <CASRN>
188425-85-6

>  <EXPOCAST_MEDIAN_EXPOSURE_PREDICTION_MG/KG-BW/DAY>
1.89E-07

>  <BIOCONCENTRATION_FACTOR_TEST_PRED>
107.152

>  <BOILING_POINT_DEGC_TEST_PRED>
446.25

>  <48HR_DAPHNIA_LC50_MOL/L_TEST_PRED>
3.19E-06

>  <DENSITY_G/CM^3_TEST_PRED>
1.396

>  <DEVTOX_TEST_PRED>
0.762

>  <96HR_FATHEAD_MINNOW_MOL/L_TEST_PRED>
4.15E-07

>  <FLASH_POINT_DEGC_TEST_PRED>
258.832

>  <MELTING_POINT_DEGC_TEST_PRED>
178.222

>  <AMES_MUTAGENICITY_TEST_PRED>
0.516

>  <ORAL_RAT_LD50_MOL/KG_TEST_PRED>
0.00933254

>  <SURFACE_TENSION_DYN/CM_TEST_PRED>
-

>  <THERMAL_CONDUCTIVITY_MW/(M*K)_TEST_PRED>
-

>  <TETRAHYMENA_PYRIFORMIS_IGC50_MOL/L_TEST_PRED>
9.08E-06

>  <VISCOSITY_CP_CP_TEST_PRED>
-

>  <VAPOR_PRESSURE_MMHG_TEST_PRED>
1.04E-08

>  <WATER_SOLUBILITY_MOL/L_TEST_PRED>
5.53E-06

>  <ATMOSPHERIC_HYDROXYLATION_RATE_(AOH)_CM3/MOLECULE*SEC_OPERA_PRED>
1.06E-11

>  <BIOCONCENTRATION_FACTOR_OPERA_PRED>
776.497

>  <BIODEGRADATION_HALF_LIFE_DAYS_DAYS_OPERA_PRED>
5.99313

>  <BOILING_POINT_DEGC_OPERA_PRED>
396.779

>  <HENRYS_LAW_ATM-M3/MOLE_OPERA_PRED>
2.67E-09

>  <OPERA_KM_DAYS_OPERA_PRED>
1.41339

>  <OCTANOL_AIR_PARTITION_COEFF_LOGKOA_OPERA_PRED>
10.3441

>  <SOIL_ADSORPTION_COEFFICIENT_KOC_L/KG_OPERA_PRED>
1557.27

>  <OCTANOL_WATER_PARTITION_LOGP_OPERA_PRED>
2.96055

>  <MELTING_POINT_DEGC_OPERA_PRED>
177.632

>  <VAPOR_PRESSURE_MMHG_OPERA_PRED>
1.17E-09

>  <WATER_SOLUBILITY_MOL/L_OPERA_PRED>
1.06E-05

>  <Shape Index>
0.56522

>  <Molecular Flexibility>
0.40684

>  <Molecular Complexity>
0.76113

>  <Electronegative Atoms>
5

>  <Stereo Centers>
0

>  <Rotatable Bonds>
3

>  <Rings Closures>
3

>  <Aromatic Rings>
3

>  <Aromatic Atoms>
18

>  <Amides>
1

>  <Amines>
0

>  <Aromatic Nitrogens>
1

>  <Shape Index 2>
0.56522

>  <Molecular Flexibility 2>
0.40684

>  <Molecular Complexity 2>
0.76113

>  <Non-C/H Atoms>
5

>  <Electronegative Atoms 2>
5

>  <Stereo Centers 2>
0

>  <Rotatable Bonds 2>
3

>  <Rings Closures 2>
3

>  <Aromatic Rings 2>
3

>  <Aromatic Atoms 2>
18

>  <sp3-Atoms>
0

>  <Amides 2>
1

>  <Amines 2>
0

>  <Aromatic Nitrogens 2>
1

>  <Basic Nitrogens>
0

$$$$
Butafenacil
Actelion Java MolfileCreator 2.0

  0  0  0  0  0  0              0 V3000
M  V30 BEGIN CTAB
M  V30 COUNTS 32 33 0 0 0
M  V30 BEGIN ATOM
M  V30 1 Cl 0.0 0.0 0.0 0
M  V30 2 C -0.0118 -1.4881 0.0 0
M  V30 3 C -1.3227 -2.2322 0.0 0
M  V30 4 C 1.2755 -2.2322 0.0 0
M  V30 5 C -2.6337 -1.4763 0.0 0
M  V30 6 C -1.3346 -3.7203 0.0 0
M  V30 7 C 1.2637 -3.7203 0.0 0
M  V30 8 O -2.6455 0.0354 0.0 0
M  V30 9 O -3.9447 -2.2204 0.0 0
M  V30 10 C -0.0472 -4.4644 0.0 0
M  V30 11 C -5.2557 -1.4645 0.0 0
M  V30 12 N -0.059 -5.9525 0.0 0
M  V30 13 C -6.5667 -2.2085 0.0 0
M  V30 14 C -4.5116 -0.1535 0.0 0
M  V30 15 C -6.0116 -0.1535 0.0 0
M  V30 16 C -1.37 -6.6966 0.0 0
M  V30 17 C 1.2283 -6.6966 0.0 0
M  V30 18 O -6.5785 -3.6967 0.0 0
M  V30 19 O -7.8777 -1.4527 0.0 0
M  V30 20 O -2.681 -5.9407 0.0 0
M  V30 21 N -1.3818 -8.1847 0.0 0
M  V30 22 O 2.5156 -5.9407 0.0 0
M  V30 23 C 1.2164 -8.1847 0.0 0
M  V30 24 C -9.1886 -2.1967 0.0 0
M  V30 25 C -0.0944 -8.9288 0.0 0
M  V30 26 C -2.6928 -8.9288 0.0 0
M  V30 27 C -10.4996 -1.4408 0.0 0
M  V30 28 C -0.1062 -10.4169 0.0 0
M  V30 29 C -11.8106 -2.1849 0.0 0
M  V30 30 F 1.3818 -10.4051 0.0 0
M  V30 31 F -0.1181 -11.9051 0.0 0
M  V30 32 F -1.618 -10.4051 0.0 0
M  V30 END ATOM
M  V30 BEGIN BOND
M  V30 1 1 1 2
M  V30 2 2 2 3
M  V30 3 1 2 4
M  V30 4 1 3 5
M  V30 5 1 3 6
M  V30 6 2 4 7
M  V30 7 2 5 8
M  V30 8 1 5 9
M  V30 9 2 6 10
M  V30 10 1 9 11
M  V30 11 1 10 12
M  V30 12 1 11 13
M  V30 13 1 11 14
M  V30 14 1 11 15
M  V30 15 1 12 16
M  V30 16 1 12 17
M  V30 17 2 13 18
M  V30 18 1 13 19
M  V30 19 2 16 20
M  V30 20 1 16 21
M  V30 21 2 17 22
M  V30 22 1 17 23
M  V30 23 1 19 24
M  V30 24 1 21 25
M  V30 25 1 21 26
M  V30 26 1 24 27
M  V30 27 1 25 28
M  V30 28 2 27 29
M  V30 29 1 28 30
M  V30 30 1 28 31
M  V30 31 1 28 32
M  V30 32 1 7 10
M  V30 33 2 23 25
M  V30 END BOND
M  V30 END CTAB
M  END
>  <Molecule Name>
Butafenacil

>  <Order (spectra)>
281

>  <NAME>
Butafenacil

>  <Molecular Formula>
C20H18N2O6ClF3

>  <Monoisotopic Mass>
474.080549

>  <SMILES>
CN1C(=O)N(C(=O)C=C1C(F)(F)F)C1=CC(C(=O)OC(C)(C)C(=O)OCC=C)=C(Cl)C=C1

>  <InChI>
InChI=1S/C20H18ClF3N2O6/c1-5-8-31-17(29)19(2,3)32-16(28)12-9-11(6-7-13(12)21)26-15(27)10-14(20(22,23)24)25(4)18(26)30/h5-7,9-10H,1,8H2,2-4H3

>  <InChIKey>
JEDYYFXHPAIBGR-UHFFFAOYSA-N

>  <Kingdom>
Organic compounds

>  <Superclass>
Benzenoids

>  <Class>
Benzene and substituted derivatives

>  <Subclass>
Benzoic acids and derivatives

>  <Parent Level 1>
Benzoic acid esters

>  <Parent Level 2>


>  <Parent Level 3>


>  <cLogP>
3.6052

>  <cLogS>
-5.145

>  <Druglikeness>
-16.647

>  <NP-class probability>
0.03

>  <SmilesFragFp 3>


>  <MS_READY_SMILES>
CN1C(=O)N(C(=O)C=C1C(F)(F)F)C1=CC(C(=O)OC(C)(C)C(=O)OCC=C)=C(Cl)C=C1

>  <MS_READY_InChI>
InChI=1S/C20H18ClF3N2O6/c1-5-8-31-17(29)19(2,3)32-16(28)12-9-11(6-7-13(12)21)26-15(27)10-14(20(22,23)24)25(4)18(26)30/h5-7,9-10H,1,8H2,2-4H3

>  <QSAR_READY_SMILES>
CN1C(=O)N(C(=O)C=C1C(F)(F)F)C1=CC(C(=O)OC(C)(C)C(=O)OCC=C)=C(Cl)C=C1

>  <QSAR_READY_InChI>
InChI=1S/C20H18ClF3N2O6/c1-5-8-31-17(29)19(2,3)32-16(28)12-9-11(6-7-13(12)21)26-15(27)10-14(20(22,23)24)25(4)18(26)30/h5-7,9-10H,1,8H2,2-4H3

>  <DTXSID>
DTXSID9034365

>  <DTXCID>
DTXCID7014365

>  <CASRN>
134605-64-4

>  <EXPOCAST_MEDIAN_EXPOSURE_PREDICTION_MG/KG-BW/DAY>
7.47E-07

>  <BIOCONCENTRATION_FACTOR_TEST_PRED>
8.18465

>  <BOILING_POINT_DEGC_TEST_PRED>
505.35

>  <48HR_DAPHNIA_LC50_MOL/L_TEST_PRED>
9.42E-07

>  <DENSITY_G/CM^3_TEST_PRED>
1.476

>  <DEVTOX_TEST_PRED>
1.204

>  <96HR_FATHEAD_MINNOW_MOL/L_TEST_PRED>
4.33E-07

>  <FLASH_POINT_DEGC_TEST_PRED>
304.329

>  <MELTING_POINT_DEGC_TEST_PRED>
115.958

>  <AMES_MUTAGENICITY_TEST_PRED>
0.276

>  <ORAL_RAT_LD50_MOL/KG_TEST_PRED>
0.00034914

>  <SURFACE_TENSION_DYN/CM_TEST_PRED>
-

>  <THERMAL_CONDUCTIVITY_MW/(M*K)_TEST_PRED>
-

>  <TETRAHYMENA_PYRIFORMIS_IGC50_MOL/L_TEST_PRED>
-

>  <VISCOSITY_CP_CP_TEST_PRED>
-

>  <VAPOR_PRESSURE_MMHG_TEST_PRED>
2.39E-09

>  <WATER_SOLUBILITY_MOL/L_TEST_PRED>
1.61E-06

>  <ATMOSPHERIC_HYDROXYLATION_RATE_(AOH)_CM3/MOLECULE*SEC_OPERA_PRED>
8.56E-11

>  <BIOCONCENTRATION_FACTOR_OPERA_PRED>
5.63333

>  <BIODEGRADATION_HALF_LIFE_DAYS_DAYS_OPERA_PRED>
5.13309

>  <BOILING_POINT_DEGC_OPERA_PRED>
358.555

>  <HENRYS_LAW_ATM-M3/MOLE_OPERA_PRED>
1.92E-08

>  <OPERA_KM_DAYS_OPERA_PRED>
8.50716

>  <OCTANOL_AIR_PARTITION_COEFF_LOGKOA_OPERA_PRED>
11.6851

>  <SOIL_ADSORPTION_COEFFICIENT_KOC_L/KG_OPERA_PRED>
129.654

>  <OCTANOL_WATER_PARTITION_LOGP_OPERA_PRED>
4.14733

>  <MELTING_POINT_DEGC_OPERA_PRED>
62.8218

>  <VAPOR_PRESSURE_MMHG_OPERA_PRED>
3.90E-08

>  <WATER_SOLUBILITY_MOL/L_OPERA_PRED>
2.10E-05

>  <Shape Index>
0.53125

>  <Molecular Flexibility>
0.54734

>  <Molecular Complexity>
0.88167

>  <Electronegative Atoms>
12

>  <Stereo Centers>
0

>  <Rotatable Bonds>
9

>  <Rings Closures>
2

>  <Aromatic Rings>
1

>  <Aromatic Atoms>
6

>  <Amides>
2

>  <Amines>
0

>  <Aromatic Nitrogens>
0

>  <Shape Index 2>
0.53125

>  <Molecular Flexibility 2>
0.54734

>  <Molecular Complexity 2>
0.88167

>  <Non-C/H Atoms>
12

>  <Electronegative Atoms 2>
12

>  <Stereo Centers 2>
0

>  <Rotatable Bonds 2>
9

>  <Rings Closures 2>
2

>  <Aromatic Rings 2>
1

>  <Aromatic Atoms 2>
6

>  <sp3-Atoms>
8

>  <Amides 2>
2

>  <Amines 2>
0

>  <Aromatic Nitrogens 2>
0

>  <Basic Nitrogens>
0

$$$$
Carbetamide
Actelion Java MolfileCreator 2.0

  0  0  0  0  0  0              0 V3000
M  V30 BEGIN CTAB
M  V30 COUNTS 17 17 0 0 0
M  V30 BEGIN ATOM
M  V30 1 O 0.0 0.0 0.0 0
M  V30 2 C -0.0118 1.5127 0.0 0
M  V30 3 O -1.3236 2.269 0.0 0
M  V30 4 N 1.2763 2.269 0.0 0
M  V30 5 C -2.6354 1.5245 0.0 0 CFG=2
M  V30 6 C 2.5645 1.5245 0.0 0
M  V30 7 C -3.9472 2.2808 0.0 0
M  V30 8 C -2.6472 0.0354 0.0 0
M  V30 9 C 2.5527 0.0354 0.0 0
M  V30 10 C 3.8527 2.2808 0.0 0
M  V30 11 O -3.959 3.7936 0.0 0
M  V30 12 N -5.259 1.5363 0.0 0
M  V30 13 C 3.8408 -0.709 0.0 0
M  V30 14 C 5.1408 1.5363 0.0 0
M  V30 15 C -6.5708 2.2927 0.0 0
M  V30 16 C 5.129 0.059 0.0 0
M  V30 17 C -7.8826 1.5481 0.0 0
M  V30 END ATOM
M  V30 BEGIN BOND
M  V30 1 2 1 2
M  V30 2 1 2 3
M  V30 3 1 2 4
M  V30 4 1 5 3 CFG=1
M  V30 5 1 4 6
M  V30 6 1 5 7
M  V30 7 1 5 8
M  V30 8 2 6 9
M  V30 9 1 6 10
M  V30 10 2 7 11
M  V30 11 1 7 12
M  V30 12 1 9 13
M  V30 13 2 10 14
M  V30 14 1 12 15
M  V30 15 2 13 16
M  V30 16 1 15 17
M  V30 17 1 14 16
M  V30 END BOND
M  V30 BEGIN COLLECTION
M  V30 MDLV30/STERAC1 ATOMS=(1 5)
M  V30 END COLLECTION
M  V30 END CTAB
M  END
>  <Molecule Name>
Carbetamide

>  <Order (spectra)>
282

>  <NAME>
Carbetamide

>  <Molecular Formula>
C12H16N2O3

>  <Monoisotopic Mass>
236.116093

>  <SMILES>
CCNC(=O)C(C)OC(=O)NC1=CC=CC=C1

>  <InChI>
InChI=1S/C12H16N2O3/c1-3-13-11(15)9(2)17-12(16)14-10-7-5-4-6-8-10/h4-9H,3H2,1-2H3,(H,13,15)(H,14,16)/t9-/m0/s1

>  <InChIKey>
AMRQXHFXNZFDCH-UHFFFAOYSA-N

>  <Kingdom>
Organic compounds

>  <Superclass>
Benzenoids

>  <Class>
Benzene and substituted derivatives

>  <Subclass>
Phenylcarbamic acid esters

>  <Parent Level 1>
Phenylcarbamic acid esters

>  <Parent Level 2>


>  <Parent Level 3>


>  <cLogP>
1.4158

>  <cLogS>
-2.718

>  <Druglikeness>
-12.08

>  <NP-class probability>
0.09

>  <SmilesFragFp 3>


>  <MS_READY_SMILES>
CCNC(=O)C(C)OC(=O)NC1=CC=CC=C1

>  <MS_READY_InChI>
InChI=1S/C12H16N2O3/c1-3-13-11(15)9(2)17-12(16)14-10-7-5-4-6-8-10/h4-9H,3H2,1-2H3,(H,13,15)(H,14,16)/t9-/m0/s1

>  <QSAR_READY_SMILES>
CCNC(=O)C(C)OC(=O)NC1=CC=CC=C1

>  <QSAR_READY_InChI>
InChI=1S/C12H16N2O3/c1-3-13-11(15)9(2)17-12(16)14-10-7-5-4-6-8-10/h4-9H,3H2,1-2H3,(H,13,15)(H,14,16)/t9-/m0/s1

>  <DTXSID>
DTXSID7041756

>  <DTXCID>
DTXCID5021756

>  <CASRN>
16118-49-3

>  <EXPOCAST_MEDIAN_EXPOSURE_PREDICTION_MG/KG-BW/DAY>
4.26E-07

>  <BIOCONCENTRATION_FACTOR_TEST_PRED>
2.5704

>  <BOILING_POINT_DEGC_TEST_PRED>
347.588

>  <48HR_DAPHNIA_LC50_MOL/L_TEST_PRED>
3.29E-05

>  <DENSITY_G/CM^3_TEST_PRED>
1.153

>  <DEVTOX_TEST_PRED>
0.694

>  <96HR_FATHEAD_MINNOW_MOL/L_TEST_PRED>
3.08E-05

>  <FLASH_POINT_DEGC_TEST_PRED>
202.068

>  <MELTING_POINT_DEGC_TEST_PRED>
113.174

>  <AMES_MUTAGENICITY_TEST_PRED>
0.814

>  <ORAL_RAT_LD50_MOL/KG_TEST_PRED>
0.00133045

>  <SURFACE_TENSION_DYN/CM_TEST_PRED>
-

>  <THERMAL_CONDUCTIVITY_MW/(M*K)_TEST_PRED>
-

>  <TETRAHYMENA_PYRIFORMIS_IGC50_MOL/L_TEST_PRED>
-

>  <VISCOSITY_CP_CP_TEST_PRED>
124.165

>  <VAPOR_PRESSURE_MMHG_TEST_PRED>
4.89E-08

>  <WATER_SOLUBILITY_MOL/L_TEST_PRED>
0.00120504

>  <ATMOSPHERIC_HYDROXYLATION_RATE_(AOH)_CM3/MOLECULE*SEC_OPERA_PRED>
1.88E-11

>  <BIOCONCENTRATION_FACTOR_OPERA_PRED>
2.30097

>  <BIODEGRADATION_HALF_LIFE_DAYS_DAYS_OPERA_PRED>
3.54387

>  <BOILING_POINT_DEGC_OPERA_PRED>
269.835

>  <HENRYS_LAW_ATM-M3/MOLE_OPERA_PRED>
3.13E-10

>  <OPERA_KM_DAYS_OPERA_PRED>
0.143187

>  <OCTANOL_AIR_PARTITION_COEFF_LOGKOA_OPERA_PRED>
9.04918

>  <SOIL_ADSORPTION_COEFFICIENT_KOC_L/KG_OPERA_PRED>
229.071

>  <OCTANOL_WATER_PARTITION_LOGP_OPERA_PRED>
1.29522

>  <MELTING_POINT_DEGC_OPERA_PRED>
119.032

>  <VAPOR_PRESSURE_MMHG_OPERA_PRED>
3.56E-07

>  <WATER_SOLUBILITY_MOL/L_OPERA_PRED>
0.0144914

>  <Shape Index>
0.70588

>  <Molecular Flexibility>
0.46267

>  <Molecular Complexity>
0.54381

>  <Electronegative Atoms>
5

>  <Stereo Centers>
1

>  <Rotatable Bonds>
5

>  <Rings Closures>
1

>  <Aromatic Rings>
1

>  <Aromatic Atoms>
6

>  <Amides>
2

>  <Amines>
0

>  <Aromatic Nitrogens>
0

>  <Shape Index 2>
0.70588

>  <Molecular Flexibility 2>
0.46267

>  <Molecular Complexity 2>
0.54381

>  <Non-C/H Atoms>
5

>  <Electronegative Atoms 2>
5

>  <Stereo Centers 2>
1

>  <Rotatable Bonds 2>
5

>  <Rings Closures 2>
1

>  <Aromatic Rings 2>
1

>  <Aromatic Atoms 2>
6

>  <sp3-Atoms>
5

>  <Amides 2>
2

>  <Amines 2>
0

>  <Aromatic Nitrogens 2>
0

>  <Basic Nitrogens>
0

$$$$
Fenhexamid
Actelion Java MolfileCreator 2.0

  0  0  0  0  0  0              0 V3000
M  V30 BEGIN CTAB
M  V30 COUNTS 19 20 0 0 0
M  V30 BEGIN ATOM
M  V30 1 Cl 0.0 0.0 0.0 0
M  V30 2 C -0.0118 -1.4885 0.0 0
M  V30 3 C -1.3231 -2.2327 0.0 0
M  V30 4 C 1.2758 -2.2327 0.0 0
M  V30 5 Cl -2.6344 -1.4766 0.0 0
M  V30 6 C -1.3349 -3.7212 0.0 0
M  V30 7 O 2.5635 -1.4766 0.0 0
M  V30 8 C 1.264 -3.7212 0.0 0
M  V30 9 N -2.6462 -4.4655 0.0 0
M  V30 10 C -0.0472 -4.4537 0.0 0
M  V30 11 C -3.9575 -3.7094 0.0 0
M  V30 12 O -3.9693 -2.1973 0.0 0
M  V30 13 C -5.2688 -4.4537 0.0 0
M  V30 14 C -6.5801 -3.6976 0.0 0
M  V30 15 C -5.2806 -5.9422 0.0 0
M  V30 16 C -3.9811 -5.1979 0.0 0
M  V30 17 C -7.8914 -4.43 0.0 0
M  V30 18 C -6.5919 -6.6864 0.0 0
M  V30 19 C -7.9032 -5.9186 0.0 0
M  V30 END ATOM
M  V30 BEGIN BOND
M  V30 1 1 1 2
M  V30 2 2 2 3
M  V30 3 1 2 4
M  V30 4 1 3 5
M  V30 5 1 3 6
M  V30 6 1 4 7
M  V30 7 2 4 8
M  V30 8 1 6 9
M  V30 9 2 6 10
M  V30 10 1 9 11
M  V30 11 2 11 12
M  V30 12 1 11 13
M  V30 13 1 13 14
M  V30 14 1 13 15
M  V30 15 1 13 16
M  V30 16 1 14 17
M  V30 17 1 15 18
M  V30 18 1 17 19
M  V30 19 1 8 10
M  V30 20 1 18 19
M  V30 END BOND
M  V30 END CTAB
M  END
>  <Molecule Name>
Fenhexamid

>  <Order (spectra)>
284

>  <NAME>
Fenhexamid

>  <Molecular Formula>
C14H17NO2Cl2

>  <Monoisotopic Mass>
301.063633

>  <SMILES>
CC1(CCCCC1)C(=O)NC1=C(Cl)C(Cl)=C(O)C=C1

>  <InChI>
InChI=1S/C14H17Cl2NO2/c1-14(7-3-2-4-8-14)13(19)17-9-5-6-10(18)12(16)11(9)15/h5-6,18H,2-4,7-8H2,1H3,(H,17,19)

>  <InChIKey>
VDLGAVXLJYLFDH-UHFFFAOYSA-N

>  <Kingdom>
Organic compounds

>  <Superclass>
Benzenoids

>  <Class>
Benzene and substituted derivatives

>  <Subclass>
Anilides

>  <Parent Level 1>
Anilides

>  <Parent Level 2>


>  <Parent Level 3>


>  <cLogP>
3.9052

>  <cLogS>
-4.637

>  <Druglikeness>
-1.435

>  <NP-class probability>
0.05

>  <SmilesFragFp 3>


>  <MS_READY_SMILES>
CC1(CCCCC1)C(=O)NC1=C(Cl)C(Cl)=C(O)C=C1

>  <MS_READY_InChI>
InChI=1S/C14H17Cl2NO2/c1-14(7-3-2-4-8-14)13(19)17-9-5-6-10(18)12(16)11(9)15/h5-6,18H,2-4,7-8H2,1H3,(H,17,19)

>  <QSAR_READY_SMILES>
CC1(CCCCC1)C(=O)NC1=C(Cl)C(Cl)=C(O)C=C1

>  <QSAR_READY_InChI>
InChI=1S/C14H17Cl2NO2/c1-14(7-3-2-4-8-14)13(19)17-9-5-6-10(18)12(16)11(9)15/h5-6,18H,2-4,7-8H2,1H3,(H,17,19)

>  <DTXSID>
DTXSID3032549

>  <DTXCID>
DTXCID1012549

>  <CASRN>
126833-17-8

>  <EXPOCAST_MEDIAN_EXPOSURE_PREDICTION_MG/KG-BW/DAY>
5.76E-07

>  <BIOCONCENTRATION_FACTOR_TEST_PRED>
44.8745

>  <BOILING_POINT_DEGC_TEST_PRED>
413.678

>  <48HR_DAPHNIA_LC50_MOL/L_TEST_PRED>
8.09E-06

>  <DENSITY_G/CM^3_TEST_PRED>
1.375

>  <DEVTOX_TEST_PRED>
0.874

>  <96HR_FATHEAD_MINNOW_MOL/L_TEST_PRED>
1.24E-06

>  <FLASH_POINT_DEGC_TEST_PRED>
223.926

>  <MELTING_POINT_DEGC_TEST_PRED>
168.026

>  <AMES_MUTAGENICITY_TEST_PRED>
0.396

>  <ORAL_RAT_LD50_MOL/KG_TEST_PRED>
0.00410204

>  <SURFACE_TENSION_DYN/CM_TEST_PRED>
-

>  <THERMAL_CONDUCTIVITY_MW/(M*K)_TEST_PRED>
150.175

>  <TETRAHYMENA_PYRIFORMIS_IGC50_MOL/L_TEST_PRED>
7.64E-06

>  <VISCOSITY_CP_CP_TEST_PRED>
103.753

>  <VAPOR_PRESSURE_MMHG_TEST_PRED>
3.78E-09

>  <WATER_SOLUBILITY_MOL/L_TEST_PRED>
0.000018281

>  <ATMOSPHERIC_HYDROXYLATION_RATE_(AOH)_CM3/MOLECULE*SEC_OPERA_PRED>
1.70E-11

>  <BIOCONCENTRATION_FACTOR_OPERA_PRED>
95.8645

>  <BIODEGRADATION_HALF_LIFE_DAYS_DAYS_OPERA_PRED>
6.36354

>  <BOILING_POINT_DEGC_OPERA_PRED>
333.322

>  <HENRYS_LAW_ATM-M3/MOLE_OPERA_PRED>
1.59E-10

>  <OPERA_KM_DAYS_OPERA_PRED>
0.707635

>  <OCTANOL_AIR_PARTITION_COEFF_LOGKOA_OPERA_PRED>
9.2171

>  <SOIL_ADSORPTION_COEFFICIENT_KOC_L/KG_OPERA_PRED>
4716.54

>  <OCTANOL_WATER_PARTITION_LOGP_OPERA_PRED>
3.51253

>  <MELTING_POINT_DEGC_OPERA_PRED>
221.12

>  <VAPOR_PRESSURE_MMHG_OPERA_PRED>
3.44E-08

>  <WATER_SOLUBILITY_MOL/L_OPERA_PRED>
6.66E-05

>  <Shape Index>
0.57895

>  <Molecular Flexibility>
0.43711

>  <Molecular Complexity>
0.72591

>  <Electronegative Atoms>
5

>  <Stereo Centers>
0

>  <Rotatable Bonds>
2

>  <Rings Closures>
2

>  <Aromatic Rings>
1

>  <Aromatic Atoms>
6

>  <Amides>
1

>  <Amines>
0

>  <Aromatic Nitrogens>
0

>  <Shape Index 2>
0.57895

>  <Molecular Flexibility 2>
0.43711

>  <Molecular Complexity 2>
0.72591

>  <Non-C/H Atoms>
5

>  <Electronegative Atoms 2>
5

>  <Stereo Centers 2>
0

>  <Rotatable Bonds 2>
2

>  <Rings Closures 2>
2

>  <Aromatic Rings 2>
1

>  <Aromatic Atoms 2>
6

>  <sp3-Atoms>
8

>  <Amides 2>
1

>  <Amines 2>
0

>  <Aromatic Nitrogens 2>
0

>  <Basic Nitrogens>
0

$$$$
Flutolanil
Actelion Java MolfileCreator 2.0

  0  0  0  0  0  0              0 V3000
M  V30 BEGIN CTAB
M  V30 COUNTS 23 24 0 0 0
M  V30 BEGIN ATOM
M  V30 1 F 0.0 0.0 0.0 0
M  V30 2 C 0.7437 1.3103 0.0 0
M  V30 3 F -0.5666 2.0659 0.0 0
M  V30 4 F 1.4874 2.6207 0.0 0
M  V30 5 C 2.0304 0.5784 0.0 0
M  V30 6 C 2.0186 -0.909 0.0 0
M  V30 7 C 3.3172 1.3339 0.0 0
M  V30 8 C 0.7083 -1.6527 0.0 0
M  V30 9 C 3.3054 -1.6527 0.0 0
M  V30 10 C 4.604 0.602 0.0 0
M  V30 11 O 0.6965 -3.1401 0.0 0
M  V30 12 N -0.602 -0.8971 0.0 0
M  V30 13 C 4.5922 -0.8971 0.0 0
M  V30 14 C -1.9124 -1.6409 0.0 0
M  V30 15 C -3.2228 -0.8853 0.0 0
M  V30 16 C -1.9242 -3.1283 0.0 0
M  V30 17 C -4.5332 -1.6173 0.0 0
M  V30 18 C -3.2346 -3.8721 0.0 0
M  V30 19 O -5.8435 -0.8617 0.0 0
M  V30 20 C -4.545 -3.1047 0.0 0
M  V30 21 C -5.8553 0.6492 0.0 0
M  V30 22 C -4.5686 1.4048 0.0 0
M  V30 23 C -7.1657 1.4048 0.0 0
M  V30 END ATOM
M  V30 BEGIN BOND
M  V30 1 1 1 2
M  V30 2 1 2 3
M  V30 3 1 2 4
M  V30 4 1 2 5
M  V30 5 2 5 6
M  V30 6 1 5 7
M  V30 7 1 6 8
M  V30 8 1 6 9
M  V30 9 2 7 10
M  V30 10 2 8 11
M  V30 11 1 8 12
M  V30 12 2 9 13
M  V30 13 1 12 14
M  V30 14 2 14 15
M  V30 15 1 14 16
M  V30 16 1 15 17
M  V30 17 2 16 18
M  V30 18 1 17 19
M  V30 19 2 17 20
M  V30 20 1 19 21
M  V30 21 1 21 22
M  V30 22 1 21 23
M  V30 23 1 10 13
M  V30 24 1 18 20
M  V30 END BOND
M  V30 END CTAB
M  END
>  <Molecule Name>
Flutolanil

>  <Order (spectra)>
285

>  <NAME>
Flutolanil

>  <Molecular Formula>
C17H16NO2F3

>  <Monoisotopic Mass>
323.113313

>  <SMILES>
CC(C)OC1=CC(NC(=O)C2=C(C=CC=C2)C(F)(F)F)=CC=C1

>  <InChI>
InChI=1S/C17H16F3NO2/c1-11(2)23-13-7-5-6-12(10-13)21-16(22)14-8-3-4-9-15(14)17(18,19)20/h3-11H,1-2H3,(H,21,22)

>  <InChIKey>
PTCGDEVVHUXTMP-UHFFFAOYSA-N

>  <Kingdom>
Organic compounds

>  <Superclass>
Benzenoids

>  <Class>
Benzene and substituted derivatives

>  <Subclass>
Anilides

>  <Parent Level 1>
Aromatic anilides

>  <Parent Level 2>
Benzanilides

>  <Parent Level 3>


>  <cLogP>
4.351

>  <cLogS>
-4.602

>  <Druglikeness>
-7.0156

>  <NP-class probability>
0

>  <SmilesFragFp 3>


>  <MS_READY_SMILES>
CC(C)OC1=CC(NC(=O)C2=C(C=CC=C2)C(F)(F)F)=CC=C1

>  <MS_READY_InChI>
InChI=1S/C17H16F3NO2/c1-11(2)23-13-7-5-6-12(10-13)21-16(22)14-8-3-4-9-15(14)17(18,19)20/h3-11H,1-2H3,(H,21,22)

>  <QSAR_READY_SMILES>
CC(C)OC1=CC(NC(=O)C2=C(C=CC=C2)C(F)(F)F)=CC=C1

>  <QSAR_READY_InChI>
InChI=1S/C17H16F3NO2/c1-11(2)23-13-7-5-6-12(10-13)21-16(22)14-8-3-4-9-15(14)17(18,19)20/h3-11H,1-2H3,(H,21,22)

>  <DTXSID>
DTXSID8024109

>  <DTXCID>
DTXCID204109

>  <CASRN>
66332-96-5

>  <EXPOCAST_MEDIAN_EXPOSURE_PREDICTION_MG/KG-BW/DAY>
3.42E-07

>  <BIOCONCENTRATION_FACTOR_TEST_PRED>
63.8263

>  <BOILING_POINT_DEGC_TEST_PRED>
396.836

>  <48HR_DAPHNIA_LC50_MOL/L_TEST_PRED>
1.00E-05

>  <DENSITY_G/CM^3_TEST_PRED>
1.303

>  <DEVTOX_TEST_PRED>
0.939

>  <96HR_FATHEAD_MINNOW_MOL/L_TEST_PRED>
1.68E-06

>  <FLASH_POINT_DEGC_TEST_PRED>
209.38

>  <MELTING_POINT_DEGC_TEST_PRED>
120.327

>  <AMES_MUTAGENICITY_TEST_PRED>
0.17

>  <ORAL_RAT_LD50_MOL/KG_TEST_PRED>
0.00642688

>  <SURFACE_TENSION_DYN/CM_TEST_PRED>
-

>  <THERMAL_CONDUCTIVITY_MW/(M*K)_TEST_PRED>
-

>  <TETRAHYMENA_PYRIFORMIS_IGC50_MOL/L_TEST_PRED>
2.36E-05

>  <VISCOSITY_CP_CP_TEST_PRED>
-

>  <VAPOR_PRESSURE_MMHG_TEST_PRED>
4.39E-07

>  <WATER_SOLUBILITY_MOL/L_TEST_PRED>
8.57E-06

>  <ATMOSPHERIC_HYDROXYLATION_RATE_(AOH)_CM3/MOLECULE*SEC_OPERA_PRED>
1.37E-11

>  <BIOCONCENTRATION_FACTOR_OPERA_PRED>
19.54

>  <BIODEGRADATION_HALF_LIFE_DAYS_DAYS_OPERA_PRED>
3.54291

>  <BOILING_POINT_DEGC_OPERA_PRED>
321.796

>  <HENRYS_LAW_ATM-M3/MOLE_OPERA_PRED>
2.13E-10

>  <OPERA_KM_DAYS_OPERA_PRED>
0.245715

>  <OCTANOL_AIR_PARTITION_COEFF_LOGKOA_OPERA_PRED>
10.761

>  <SOIL_ADSORPTION_COEFFICIENT_KOC_L/KG_OPERA_PRED>
1573.6

>  <OCTANOL_WATER_PARTITION_LOGP_OPERA_PRED>
3.70202

>  <MELTING_POINT_DEGC_OPERA_PRED>
104.543

>  <VAPOR_PRESSURE_MMHG_OPERA_PRED>
4.89E-08

>  <WATER_SOLUBILITY_MOL/L_OPERA_PRED>
2.44E-05

>  <Shape Index>
0.52174

>  <Molecular Flexibility>
0.53946

>  <Molecular Complexity>
0.77052

>  <Electronegative Atoms>
6

>  <Stereo Centers>
0

>  <Rotatable Bonds>
5

>  <Rings Closures>
2

>  <Aromatic Rings>
2

>  <Aromatic Atoms>
12

>  <Amides>
1

>  <Amines>
0

>  <Aromatic Nitrogens>
0

>  <Shape Index 2>
0.52174

>  <Molecular Flexibility 2>
0.53946

>  <Molecular Complexity 2>
0.77052

>  <Non-C/H Atoms>
6

>  <Electronegative Atoms 2>
6

>  <Stereo Centers 2>
0

>  <Rotatable Bonds 2>
5

>  <Rings Closures 2>
2

>  <Aromatic Rings 2>
2

>  <Aromatic Atoms 2>
12

>  <sp3-Atoms>
5

>  <Amides 2>
1

>  <Amines 2>
0

>  <Aromatic Nitrogens 2>
0

>  <Basic Nitrogens>
0

$$$$
Furalaxyl
Actelion Java MolfileCreator 2.0

  0  0  0  0  0  0              0 V3000
M  V30 BEGIN CTAB
M  V30 COUNTS 22 23 0 0 0
M  V30 BEGIN ATOM
M  V30 1 O 0.0 0.0 0.0 0
M  V30 2 C -0.0119 -1.5077 0.0 0
M  V30 3 N -1.3402 -2.2496 0.0 0
M  V30 4 C 1.2923 -2.2496 0.0 0
M  V30 5 C -1.3521 -3.7573 0.0 0
M  V30 6 C -2.6684 -1.4838 0.0 0 CFG=2
M  V30 7 O 2.6684 -1.6154 0.0 0
M  V30 8 C 1.5915 -3.7454 0.0 0
M  V30 9 C -2.6804 -4.5112 0.0 0
M  V30 10 C -0.0478 -4.5112 0.0 0
M  V30 11 C -2.6804 0.0478 0.0 0
M  V30 12 C -3.9967 -2.2257 0.0 0
M  V30 13 C 3.6736 -2.7282 0.0 0
M  V30 14 C 2.9197 -4.0565 0.0 0
M  V30 15 C -2.6923 -6.0189 0.0 0
M  V30 16 C -4.0086 -3.7334 0.0 0
M  V30 17 C -0.0598 -6.0189 0.0 0
M  V30 18 C 0.9572 -3.7573 0.0 0
M  V30 19 O -4.0086 0.8137 0.0 0
M  V30 20 O -1.3761 0.8137 0.0 0
M  V30 21 C -1.388 -6.7608 0.0 0
M  V30 22 C -1.388 2.3453 0.0 0
M  V30 END ATOM
M  V30 BEGIN BOND
M  V30 1 2 1 2
M  V30 2 1 2 3
M  V30 3 1 2 4
M  V30 4 1 3 5
M  V30 5 1 6 3 CFG=1
M  V30 6 1 4 7
M  V30 7 2 4 8
M  V30 8 2 5 9
M  V30 9 1 5 10
M  V30 10 1 6 11
M  V30 11 1 6 12
M  V30 12 1 7 13
M  V30 13 1 8 14
M  V30 14 1 9 15
M  V30 15 1 9 16
M  V30 16 2 10 17
M  V30 17 1 10 18
M  V30 18 2 11 19
M  V30 19 1 11 20
M  V30 20 2 15 21
M  V30 21 1 20 22
M  V30 22 2 13 14
M  V30 23 1 17 21
M  V30 END BOND
M  V30 BEGIN COLLECTION
M  V30 MDLV30/STERAC1 ATOMS=(1 6)
M  V30 END COLLECTION
M  V30 END CTAB
M  END
>  <Molecule Name>
Furalaxyl

>  <Order (spectra)>
286

>  <NAME>
Furalaxyl

>  <Molecular Formula>
C17H19NO4

>  <Monoisotopic Mass>
301.131409

>  <SMILES>
COC(=O)C(C)N(C(=O)C1=CC=CO1)C1=C(C)C=CC=C1C

>  <InChI>
InChI=1S/C17H19NO4/c1-11-7-5-8-12(2)15(11)18(13(3)17(20)21-4)16(19)14-9-6-10-22-14/h5-10,13H,1-4H3/t13-/m0/s1

>  <InChIKey>
CIEXPHRYOLIQQD-UHFFFAOYSA-N

>  <Kingdom>
Organic compounds

>  <Superclass>
Benzenoids

>  <Class>
Benzene and substituted derivatives

>  <Subclass>
Anilides

>  <Parent Level 1>
Aromatic anilides

>  <Parent Level 2>
Furanilides

>  <Parent Level 3>
2-furanilides

>  <cLogP>
2.8502

>  <cLogS>
-3.755

>  <Druglikeness>
-1.4031

>  <NP-class probability>
0.11

>  <SmilesFragFp 3>


>  <MS_READY_SMILES>
COC(=O)C(C)N(C(=O)C1=CC=CO1)C1=C(C)C=CC=C1C

>  <MS_READY_InChI>
InChI=1S/C17H19NO4/c1-11-7-5-8-12(2)15(11)18(13(3)17(20)21-4)16(19)14-9-6-10-22-14/h5-10,13H,1-4H3/t13-/m0/s1

>  <QSAR_READY_SMILES>
COC(=O)C(C)N(C(=O)C1=CC=CO1)C1=C(C)C=CC=C1C

>  <QSAR_READY_InChI>
InChI=1S/C17H19NO4/c1-11-7-5-8-12(2)15(11)18(13(3)17(20)21-4)16(19)14-9-6-10-22-14/h5-10,13H,1-4H3/t13-/m0/s1

>  <DTXSID>
DTXSID4047543

>  <DTXCID>
DTXCID2027543

>  <CASRN>
57646-30-7

>  <EXPOCAST_MEDIAN_EXPOSURE_PREDICTION_MG/KG-BW/DAY>
7.24E-07

>  <BIOCONCENTRATION_FACTOR_TEST_PRED>
120.781

>  <BOILING_POINT_DEGC_TEST_PRED>
375.86

>  <48HR_DAPHNIA_LC50_MOL/L_TEST_PRED>
9.55E-06

>  <DENSITY_G/CM^3_TEST_PRED>
1.179

>  <DEVTOX_TEST_PRED>
0.589

>  <96HR_FATHEAD_MINNOW_MOL/L_TEST_PRED>
1.05E-05

>  <FLASH_POINT_DEGC_TEST_PRED>
196.588

>  <MELTING_POINT_DEGC_TEST_PRED>
104.927

>  <AMES_MUTAGENICITY_TEST_PRED>
0.336

>  <ORAL_RAT_LD50_MOL/KG_TEST_PRED>
0.00396278

>  <SURFACE_TENSION_DYN/CM_TEST_PRED>
-

>  <THERMAL_CONDUCTIVITY_MW/(M*K)_TEST_PRED>
-

>  <TETRAHYMENA_PYRIFORMIS_IGC50_MOL/L_TEST_PRED>
0.000054325

>  <VISCOSITY_CP_CP_TEST_PRED>
-

>  <VAPOR_PRESSURE_MMHG_TEST_PRED>
5.52E-07

>  <WATER_SOLUBILITY_MOL/L_TEST_PRED>
9.35E-05

>  <ATMOSPHERIC_HYDROXYLATION_RATE_(AOH)_CM3/MOLECULE*SEC_OPERA_PRED>
1.06E-11

>  <BIOCONCENTRATION_FACTOR_OPERA_PRED>
16.8936

>  <BIODEGRADATION_HALF_LIFE_DAYS_DAYS_OPERA_PRED>
4.65365

>  <BOILING_POINT_DEGC_OPERA_PRED>
354.252

>  <HENRYS_LAW_ATM-M3/MOLE_OPERA_PRED>
4.50E-09

>  <OPERA_KM_DAYS_OPERA_PRED>
0.151864

>  <OCTANOL_AIR_PARTITION_COEFF_LOGKOA_OPERA_PRED>
9.58138

>  <SOIL_ADSORPTION_COEFFICIENT_KOC_L/KG_OPERA_PRED>
739.219

>  <OCTANOL_WATER_PARTITION_LOGP_OPERA_PRED>
2.61042

>  <MELTING_POINT_DEGC_OPERA_PRED>
69.9723

>  <VAPOR_PRESSURE_MMHG_OPERA_PRED>
5.23E-07

>  <WATER_SOLUBILITY_MOL/L_OPERA_PRED>
0.000748359

>  <Shape Index>
0.40909

>  <Molecular Flexibility>
0.52249

>  <Molecular Complexity>
0.79602

>  <Electronegative Atoms>
5

>  <Stereo Centers>
1

>  <Rotatable Bonds>
5

>  <Rings Closures>
2

>  <Aromatic Rings>
2

>  <Aromatic Atoms>
11

>  <Amides>
1

>  <Amines>
0

>  <Aromatic Nitrogens>
0

>  <Shape Index 2>
0.40909

>  <Molecular Flexibility 2>
0.52249

>  <Molecular Complexity 2>
0.79602

>  <Non-C/H Atoms>
5

>  <Electronegative Atoms 2>
5

>  <Stereo Centers 2>
1

>  <Rotatable Bonds 2>
5

>  <Rings Closures 2>
2

>  <Aromatic Rings 2>
2

>  <Aromatic Atoms 2>
11

>  <sp3-Atoms>
6

>  <Amides 2>
1

>  <Amines 2>
0

>  <Aromatic Nitrogens 2>
0

>  <Basic Nitrogens>
0

$$$$
Mepanipyrim
Actelion Java MolfileCreator 2.0

  0  0  0  0  0  0              0 V3000
M  V30 BEGIN CTAB
M  V30 COUNTS 17 18 0 0 0
M  V30 BEGIN ATOM
M  V30 1 N 0.0 0.0 0.0 0
M  V30 2 C -1.3144 -0.7341 0.0 0
M  V30 3 C 1.2907 -0.7341 0.0 0
M  V30 4 N -1.3262 -2.2262 0.0 0
M  V30 5 N -2.6288 0.0236 0.0 0
M  V30 6 C 2.5814 0.0236 0.0 0
M  V30 7 C 1.2788 -2.2262 0.0 0
M  V30 8 C -0.0355 -2.9603 0.0 0
M  V30 9 C -3.9432 -0.7104 0.0 0
M  V30 10 C 3.8721 0.7815 0.0 0
M  V30 11 C -0.0473 -4.4524 0.0 0
M  V30 12 C -5.2576 0.0473 0.0 0
M  V30 13 C -3.955 -2.2025 0.0 0
M  V30 14 C 5.1629 1.5393 0.0 0
M  V30 15 C -6.572 -0.6868 0.0 0
M  V30 16 C -5.2694 -2.9366 0.0 0
M  V30 17 C -6.5838 -2.1788 0.0 0
M  V30 END ATOM
M  V30 BEGIN BOND
M  V30 1 2 1 2
M  V30 2 1 1 3
M  V30 3 1 2 4
M  V30 4 1 2 5
M  V30 5 1 3 6
M  V30 6 2 3 7
M  V30 7 2 4 8
M  V30 8 1 5 9
M  V30 9 3 6 10
M  V30 10 1 8 11
M  V30 11 2 9 12
M  V30 12 1 9 13
M  V30 13 1 10 14
M  V30 14 1 12 15
M  V30 15 2 13 16
M  V30 16 2 15 17
M  V30 17 1 7 8
M  V30 18 1 16 17
M  V30 END BOND
M  V30 END CTAB
M  END
>  <Molecule Name>
Mepanipyrim

>  <Order (spectra)>
288

>  <NAME>
Mepanipyrim

>  <Molecular Formula>
C14H13N3

>  <Monoisotopic Mass>
223.110947

>  <SMILES>
CC#CC1=CC(C)=NC(NC2=CC=CC=C2)=N1

>  <InChI>
InChI=1S/C14H13N3/c1-3-7-13-10-11(2)15-14(17-13)16-12-8-5-4-6-9-12/h4-6,8-10H,1-2H3,(H,15,16,17)

>  <InChIKey>
CIFWZNRJIBNXRE-UHFFFAOYSA-N

>  <Kingdom>
Organic compounds

>  <Superclass>
Benzenoids

>  <Class>
Benzene and substituted derivatives

>  <Subclass>
Aniline and substituted anilines

>  <Parent Level 1>
Aniline and substituted anilines

>  <Parent Level 2>


>  <Parent Level 3>


>  <cLogP>
3.4695

>  <cLogS>
-4.148

>  <Druglikeness>
-3.6556

>  <NP-class probability>
0.17

>  <SmilesFragFp 3>


>  <MS_READY_SMILES>
CC#CC1=CC(C)=NC(NC2=CC=CC=C2)=N1

>  <MS_READY_InChI>
InChI=1S/C14H13N3/c1-3-7-13-10-11(2)15-14(17-13)16-12-8-5-4-6-9-12/h4-6,8-10H,1-2H3,(H,15,16,17)

>  <QSAR_READY_SMILES>
CC#CC1=CC(C)=NC(NC2=CC=CC=C2)=N1

>  <QSAR_READY_InChI>
InChI=1S/C14H13N3/c1-3-7-13-10-11(2)15-14(17-13)16-12-8-5-4-6-9-12/h4-6,8-10H,1-2H3,(H,15,16,17)

>  <DTXSID>
DTXSID4042121

>  <DTXCID>
DTXCID2022121

>  <CASRN>
110235-47-7

>  <EXPOCAST_MEDIAN_EXPOSURE_PREDICTION_MG/KG-BW/DAY>
4.89E-07

>  <BIOCONCENTRATION_FACTOR_TEST_PRED>
-

>  <BOILING_POINT_DEGC_TEST_PRED>
341.847

>  <48HR_DAPHNIA_LC50_MOL/L_TEST_PRED>
-

>  <DENSITY_G/CM^3_TEST_PRED>
1.087

>  <DEVTOX_TEST_PRED>
0.608

>  <96HR_FATHEAD_MINNOW_MOL/L_TEST_PRED>
-

>  <FLASH_POINT_DEGC_TEST_PRED>
189.291

>  <MELTING_POINT_DEGC_TEST_PRED>
119.587

>  <AMES_MUTAGENICITY_TEST_PRED>
0.458

>  <ORAL_RAT_LD50_MOL/KG_TEST_PRED>
-

>  <SURFACE_TENSION_DYN/CM_TEST_PRED>
-

>  <THERMAL_CONDUCTIVITY_MW/(M*K)_TEST_PRED>
-

>  <TETRAHYMENA_PYRIFORMIS_IGC50_MOL/L_TEST_PRED>
2.81E-05

>  <VISCOSITY_CP_CP_TEST_PRED>
-

>  <VAPOR_PRESSURE_MMHG_TEST_PRED>
-

>  <WATER_SOLUBILITY_MOL/L_TEST_PRED>
-

>  <ATMOSPHERIC_HYDROXYLATION_RATE_(AOH)_CM3/MOLECULE*SEC_OPERA_PRED>
1.45E-11

>  <BIOCONCENTRATION_FACTOR_OPERA_PRED>
44.6235

>  <BIODEGRADATION_HALF_LIFE_DAYS_DAYS_OPERA_PRED>
3.34235

>  <BOILING_POINT_DEGC_OPERA_PRED>
326.556

>  <HENRYS_LAW_ATM-M3/MOLE_OPERA_PRED>
1.40E-07

>  <OPERA_KM_DAYS_OPERA_PRED>
0.720183

>  <OCTANOL_AIR_PARTITION_COEFF_LOGKOA_OPERA_PRED>
10.6155

>  <SOIL_ADSORPTION_COEFFICIENT_KOC_L/KG_OPERA_PRED>
212.834

>  <OCTANOL_WATER_PARTITION_LOGP_OPERA_PRED>
3.27928

>  <MELTING_POINT_DEGC_OPERA_PRED>
132.613

>  <VAPOR_PRESSURE_MMHG_OPERA_PRED>
1.75E-07

>  <WATER_SOLUBILITY_MOL/L_OPERA_PRED>
1.15E-05

>  <Shape Index>
0.64706

>  <Molecular Flexibility>
0.42113

>  <Molecular Complexity>
0.63466

>  <Electronegative Atoms>
3

>  <Stereo Centers>
0

>  <Rotatable Bonds>
2

>  <Rings Closures>
2

>  <Aromatic Rings>
2

>  <Aromatic Atoms>
12

>  <Amides>
0

>  <Amines>
0

>  <Aromatic Nitrogens>
2

>  <Shape Index 2>
0.64706

>  <Molecular Flexibility 2>
0.42113

>  <Molecular Complexity 2>
0.63466

>  <Non-C/H Atoms>
3

>  <Electronegative Atoms 2>
3

>  <Stereo Centers 2>
0

>  <Rotatable Bonds 2>
2

>  <Rings Closures 2>
2

>  <Aromatic Rings 2>
2

>  <Aromatic Atoms 2>
12

>  <sp3-Atoms>
2

>  <Amides 2>
0

>  <Amines 2>
0

>  <Aromatic Nitrogens 2>
2

>  <Basic Nitrogens>
0

$$$$
Mepronil
Actelion Java MolfileCreator 2.0

  0  0  0  0  0  0              0 V3000
M  V30 BEGIN CTAB
M  V30 COUNTS 20 21 0 0 0
M  V30 BEGIN ATOM
M  V30 1 O 0.0 0.0 0.0 0
M  V30 2 C -1.312 -0.7328 0.0 0
M  V30 3 N -2.6241 0.0236 0.0 0
M  V30 4 C -1.3239 -2.2222 0.0 0
M  V30 5 C -3.9362 -0.7092 0.0 0
M  V30 6 C -0.0354 -2.9551 0.0 0
M  V30 7 C -2.6359 -2.9551 0.0 0
M  V30 8 C -5.2483 0.0472 0.0 0
M  V30 9 C -3.948 -2.1986 0.0 0
M  V30 10 C -0.0472 -4.4445 0.0 0
M  V30 11 C 1.2529 -2.1986 0.0 0
M  V30 12 C -2.6478 -4.4445 0.0 0
M  V30 13 C -6.5604 -0.6855 0.0 0
M  V30 14 C -5.2601 -2.9315 0.0 0
M  V30 15 C -1.3593 -5.1892 0.0 0
M  V30 16 O -7.8724 0.0709 0.0 0
M  V30 17 C -6.5722 -2.1749 0.0 0
M  V30 18 C -9.1845 -0.6619 0.0 0
M  V30 19 C -9.1964 -2.1513 0.0 0
M  V30 20 C -10.4966 0.0945 0.0 0
M  V30 END ATOM
M  V30 BEGIN BOND
M  V30 1 2 1 2
M  V30 2 1 2 3
M  V30 3 1 2 4
M  V30 4 1 3 5
M  V30 5 2 4 6
M  V30 6 1 4 7
M  V30 7 2 5 8
M  V30 8 1 5 9
M  V30 9 1 6 10
M  V30 10 1 6 11
M  V30 11 2 7 12
M  V30 12 1 8 13
M  V30 13 2 9 14
M  V30 14 2 10 15
M  V30 15 1 13 16
M  V30 16 2 13 17
M  V30 17 1 16 18
M  V30 18 1 18 19
M  V30 19 1 18 20
M  V30 20 1 12 15
M  V30 21 1 14 17
M  V30 END BOND
M  V30 END CTAB
M  END
>  <Molecule Name>
Mepronil

>  <Order (spectra)>
289

>  <NAME>
Mepronil

>  <Molecular Formula>
C17H19NO2

>  <Monoisotopic Mass>
269.141579

>  <SMILES>
CC(C)OC1=CC=CC(NC(=O)C2=C(C)C=CC=C2)=C1

>  <InChI>
InChI=1S/C17H19NO2/c1-12(2)20-15-9-6-8-14(11-15)18-17(19)16-10-5-4-7-13(16)3/h4-12H,1-3H3,(H,18,19)

>  <InChIKey>
BCTQJXQXJVLSIG-UHFFFAOYSA-N

>  <Kingdom>
Organic compounds

>  <Superclass>
Benzenoids

>  <Class>
Benzene and substituted derivatives

>  <Subclass>
Anilides

>  <Parent Level 1>
Aromatic anilides

>  <Parent Level 2>
Benzanilides

>  <Parent Level 3>


>  <cLogP>
3.8466

>  <cLogS>
-4.168

>  <Druglikeness>
0.17438

>  <NP-class probability>
0.02

>  <SmilesFragFp 3>


>  <MS_READY_SMILES>
CC(C)OC1=CC=CC(NC(=O)C2=C(C)C=CC=C2)=C1

>  <MS_READY_InChI>
InChI=1S/C17H19NO2/c1-12(2)20-15-9-6-8-14(11-15)18-17(19)16-10-5-4-7-13(16)3/h4-12H,1-3H3,(H,18,19)

>  <QSAR_READY_SMILES>
CC(C)OC1=CC=CC(NC(=O)C2=C(C)C=CC=C2)=C1

>  <QSAR_READY_InChI>
InChI=1S/C17H19NO2/c1-12(2)20-15-9-6-8-14(11-15)18-17(19)16-10-5-4-7-13(16)3/h4-12H,1-3H3,(H,18,19)

>  <DTXSID>
DTXSID1037565

>  <DTXCID>
DTXCID9017565

>  <CASRN>
55814-41-0

>  <EXPOCAST_MEDIAN_EXPOSURE_PREDICTION_MG/KG-BW/DAY>
2.18E-07

>  <BIOCONCENTRATION_FACTOR_TEST_PRED>
55.0808

>  <BOILING_POINT_DEGC_TEST_PRED>
380.377

>  <48HR_DAPHNIA_LC50_MOL/L_TEST_PRED>
3.53E-05

>  <DENSITY_G/CM^3_TEST_PRED>
1.135

>  <DEVTOX_TEST_PRED>
0.53

>  <96HR_FATHEAD_MINNOW_MOL/L_TEST_PRED>
5.81E-06

>  <FLASH_POINT_DEGC_TEST_PRED>
207.765

>  <MELTING_POINT_DEGC_TEST_PRED>
119.173

>  <AMES_MUTAGENICITY_TEST_PRED>
0.614

>  <ORAL_RAT_LD50_MOL/KG_TEST_PRED>
0.00824138

>  <SURFACE_TENSION_DYN/CM_TEST_PRED>
-

>  <THERMAL_CONDUCTIVITY_MW/(M*K)_TEST_PRED>
-

>  <TETRAHYMENA_PYRIFORMIS_IGC50_MOL/L_TEST_PRED>
2.36E-05

>  <VISCOSITY_CP_CP_TEST_PRED>
-

>  <VAPOR_PRESSURE_MMHG_TEST_PRED>
9.66E-08

>  <WATER_SOLUBILITY_MOL/L_TEST_PRED>
0.000011246

>  <ATMOSPHERIC_HYDROXYLATION_RATE_(AOH)_CM3/MOLECULE*SEC_OPERA_PRED>
1.70E-11

>  <BIOCONCENTRATION_FACTOR_OPERA_PRED>
163.72

>  <BIODEGRADATION_HALF_LIFE_DAYS_DAYS_OPERA_PRED>
3.34319

>  <BOILING_POINT_DEGC_OPERA_PRED>
333.196

>  <HENRYS_LAW_ATM-M3/MOLE_OPERA_PRED>
3.64E-10

>  <OPERA_KM_DAYS_OPERA_PRED>
1.3929

>  <OCTANOL_AIR_PARTITION_COEFF_LOGKOA_OPERA_PRED>
11.2486

>  <SOIL_ADSORPTION_COEFFICIENT_KOC_L/KG_OPERA_PRED>
6784.76

>  <OCTANOL_WATER_PARTITION_LOGP_OPERA_PRED>
3.66001

>  <MELTING_POINT_DEGC_OPERA_PRED>
92.6094

>  <VAPOR_PRESSURE_MMHG_OPERA_PRED>
4.19E-07

>  <WATER_SOLUBILITY_MOL/L_OPERA_PRED>
0.000046833

>  <Shape Index>
0.6

>  <Molecular Flexibility>
0.50463

>  <Molecular Complexity>
0.67279

>  <Electronegative Atoms>
3

>  <Stereo Centers>
0

>  <Rotatable Bonds>
4

>  <Rings Closures>
2

>  <Aromatic Rings>
2

>  <Aromatic Atoms>
12

>  <Amides>
1

>  <Amines>
0

>  <Aromatic Nitrogens>
0

>  <Shape Index 2>
0.6

>  <Molecular Flexibility 2>
0.50463

>  <Molecular Complexity 2>
0.67279

>  <Non-C/H Atoms>
3

>  <Electronegative Atoms 2>
3

>  <Stereo Centers 2>
0

>  <Rotatable Bonds 2>
4

>  <Rings Closures 2>
2

>  <Aromatic Rings 2>
2

>  <Aromatic Atoms 2>
12

>  <sp3-Atoms>
5

>  <Amides 2>
1

>  <Amines 2>
0

>  <Aromatic Nitrogens 2>
0

>  <Basic Nitrogens>
0

$$$$
Myclobutanil
Actelion Java MolfileCreator 2.0

  0  0  0  0  0  0              0 V3000
M  V30 BEGIN CTAB
M  V30 COUNTS 20 21 0 0 0
M  V30 BEGIN ATOM
M  V30 1 Cl 0.0 0.0 0.0 0
M  V30 2 C 1.2944 -0.7481 0.0 0
M  V30 3 C 1.2825 -2.2444 0.0 0
M  V30 4 C 2.5888 0.0118 0.0 0
M  V30 5 C 2.5769 -2.9807 0.0 0
M  V30 6 C 3.8832 -0.7362 0.0 0
M  V30 7 C 3.8713 -2.2206 0.0 0
M  V30 8 C 5.1657 -2.9688 0.0 0 CFG=1
M  V30 9 C 6.4601 -3.7169 0.0 0
M  V30 10 C 5.1538 -4.4651 0.0 0
M  V30 11 C 6.4601 -2.2088 0.0 0
M  V30 12 N 7.7545 -4.4651 0.0 0
M  V30 13 N 3.8357 -5.2132 0.0 0
M  V30 14 C 7.7545 -2.9569 0.0 0
M  V30 15 N 2.4463 -4.5838 0.0 0
M  V30 16 C 3.6694 -6.6976 0.0 0
M  V30 17 C 9.049 -2.1969 0.0 0
M  V30 18 C 1.425 -5.6882 0.0 0
M  V30 19 N 2.185 -6.9945 0.0 0
M  V30 20 C 10.3434 -2.945 0.0 0
M  V30 END ATOM
M  V30 BEGIN BOND
M  V30 1 1 1 2
M  V30 2 2 2 3
M  V30 3 1 2 4
M  V30 4 1 3 5
M  V30 5 2 4 6
M  V30 6 2 5 7
M  V30 7 1 7 8
M  V30 8 1 8 9 CFG=1
M  V30 9 1 8 10
M  V30 10 1 8 11
M  V30 11 3 9 12
M  V30 12 1 10 13
M  V30 13 1 11 14
M  V30 14 1 13 15
M  V30 15 1 13 16
M  V30 16 1 14 17
M  V30 17 2 15 18
M  V30 18 2 16 19
M  V30 19 1 17 20
M  V30 20 1 6 7
M  V30 21 1 18 19
M  V30 END BOND
M  V30 BEGIN COLLECTION
M  V30 MDLV30/STERAC1 ATOMS=(1 8)
M  V30 END COLLECTION
M  V30 END CTAB
M  END
>  <Molecule Name>
Myclobutanil

>  <Order (spectra)>
291

>  <NAME>
Myclobutanil

>  <Molecular Formula>
C15H17N4Cl

>  <Monoisotopic Mass>
288.114173

>  <SMILES>
CCCCC(CN1C=NC=N1)(C#N)C1=CC=C(Cl)C=C1

>  <InChI>
InChI=1S/C15H17ClN4/c1-2-3-8-15(9-17,10-20-12-18-11-19-20)13-4-6-14(16)7-5-13/h4-7,11-12H,2-3,8,10H2,1H3/t15-/m0/s1

>  <InChIKey>
HZJKXKUJVSEEFU-UHFFFAOYSA-N

>  <Kingdom>
Organic compounds

>  <Superclass>
Benzenoids

>  <Class>
Benzene and substituted derivatives

>  <Subclass>
Halobenzenes

>  <Parent Level 1>
Chlorobenzenes

>  <Parent Level 2>


>  <Parent Level 3>


>  <cLogP>
3.3333

>  <cLogS>
-4.251

>  <Druglikeness>
-5.693

>  <NP-class probability>
0.01

>  <SmilesFragFp 3>


>  <MS_READY_SMILES>
CCCCC(CN1C=NC=N1)(C#N)C1=CC=C(Cl)C=C1

>  <MS_READY_InChI>
InChI=1S/C15H17ClN4/c1-2-3-8-15(9-17,10-20-12-18-11-19-20)13-4-6-14(16)7-5-13/h4-7,11-12H,2-3,8,10H2,1H3/t15-/m0/s1

>  <QSAR_READY_SMILES>
CCCCC(CN1C=NC=N1)(C#N)C1=CC=C(Cl)C=C1

>  <QSAR_READY_InChI>
InChI=1S/C15H17ClN4/c1-2-3-8-15(9-17,10-20-12-18-11-19-20)13-4-6-14(16)7-5-13/h4-7,11-12H,2-3,8,10H2,1H3/t15-/m0/s1

>  <DTXSID>
DTXSID8024315

>  <DTXCID>
DTXCID304315

>  <CASRN>
88671-89-0

>  <EXPOCAST_MEDIAN_EXPOSURE_PREDICTION_MG/KG-BW/DAY>
3.89E-07

>  <BIOCONCENTRATION_FACTOR_TEST_PRED>
103.514

>  <BOILING_POINT_DEGC_TEST_PRED>
396.923

>  <48HR_DAPHNIA_LC50_MOL/L_TEST_PRED>
7.93E-06

>  <DENSITY_G/CM^3_TEST_PRED>
1.248

>  <DEVTOX_TEST_PRED>
0.554

>  <96HR_FATHEAD_MINNOW_MOL/L_TEST_PRED>
1.66E-05

>  <FLASH_POINT_DEGC_TEST_PRED>
246.156

>  <MELTING_POINT_DEGC_TEST_PRED>
95.825

>  <AMES_MUTAGENICITY_TEST_PRED>
0.709

>  <ORAL_RAT_LD50_MOL/KG_TEST_PRED>
0.00576766

>  <SURFACE_TENSION_DYN/CM_TEST_PRED>
-

>  <THERMAL_CONDUCTIVITY_MW/(M*K)_TEST_PRED>
-

>  <TETRAHYMENA_PYRIFORMIS_IGC50_MOL/L_TEST_PRED>
-

>  <VISCOSITY_CP_CP_TEST_PRED>
-

>  <VAPOR_PRESSURE_MMHG_TEST_PRED>
1.26E-07

>  <WATER_SOLUBILITY_MOL/L_TEST_PRED>
3.83E-05

>  <ATMOSPHERIC_HYDROXYLATION_RATE_(AOH)_CM3/MOLECULE*SEC_OPERA_PRED>
1.66E-11

>  <BIOCONCENTRATION_FACTOR_OPERA_PRED>
33.7376

>  <BIODEGRADATION_HALF_LIFE_DAYS_DAYS_OPERA_PRED>
3.35398

>  <BOILING_POINT_DEGC_OPERA_PRED>
339.227

>  <HENRYS_LAW_ATM-M3/MOLE_OPERA_PRED>
3.18E-07

>  <OPERA_KM_DAYS_OPERA_PRED>
2.23048

>  <OCTANOL_AIR_PARTITION_COEFF_LOGKOA_OPERA_PRED>
8.99596

>  <SOIL_ADSORPTION_COEFFICIENT_KOC_L/KG_OPERA_PRED>
501.959

>  <OCTANOL_WATER_PARTITION_LOGP_OPERA_PRED>
2.9395

>  <MELTING_POINT_DEGC_OPERA_PRED>
152.76

>  <VAPOR_PRESSURE_MMHG_OPERA_PRED>
1.96E-07

>  <WATER_SOLUBILITY_MOL/L_OPERA_PRED>
0.000480987

>  <Shape Index>
0.5

>  <Molecular Flexibility>
0.5721

>  <Molecular Complexity>
0.78175

>  <Electronegative Atoms>
5

>  <Stereo Centers>
1

>  <Rotatable Bonds>
6

>  <Rings Closures>
2

>  <Aromatic Rings>
2

>  <Aromatic Atoms>
11

>  <Amides>
0

>  <Amines>
0

>  <Aromatic Nitrogens>
3

>  <Shape Index 2>
0.5

>  <Molecular Flexibility 2>
0.5721

>  <Molecular Complexity 2>
0.78175

>  <Non-C/H Atoms>
5

>  <Electronegative Atoms 2>
5

>  <Stereo Centers 2>
1

>  <Rotatable Bonds 2>
6

>  <Rings Closures 2>
2

>  <Aromatic Rings 2>
2

>  <Aromatic Atoms 2>
11

>  <sp3-Atoms>
6

>  <Amides 2>
0

>  <Amines 2>
0

>  <Aromatic Nitrogens 2>
3

>  <Basic Nitrogens>
0

$$$$
Oxadixyl
Actelion Java MolfileCreator 2.0

  0  0  0  0  0  0              0 V3000
M  V30 BEGIN CTAB
M  V30 COUNTS 20 21 0 0 0
M  V30 BEGIN ATOM
M  V30 1 O 0.0 0.0 0.0 0
M  V30 2 C 1.1018 -0.9952 0.0 0
M  V30 3 O 2.5592 -0.6753 0.0 0
M  V30 4 N 0.936 -2.4763 0.0 0
M  V30 5 C 3.2938 -1.9668 0.0 0
M  V30 6 N -0.3791 -3.2109 0.0 0
M  V30 7 C 2.2985 -3.0805 0.0 0
M  V30 8 C -0.3909 -4.7038 0.0 0
M  V30 9 C -1.6943 -2.4526 0.0 0
M  V30 10 C -1.7061 -5.4384 0.0 0
M  V30 11 C 0.9004 -5.4384 0.0 0
M  V30 12 O -1.7061 -0.936 0.0 0
M  V30 13 C -3.0094 -3.1872 0.0 0
M  V30 14 C -1.718 -6.9313 0.0 0
M  V30 15 C -3.0213 -4.6801 0.0 0
M  V30 16 C 0.8886 -6.9313 0.0 0
M  V30 17 C 2.1919 -4.6801 0.0 0
M  V30 18 O -4.3246 -2.4289 0.0 0
M  V30 19 C -0.4265 -7.6777 0.0 0
M  V30 20 C -5.6398 -3.1635 0.0 0
M  V30 END ATOM
M  V30 BEGIN BOND
M  V30 1 2 1 2
M  V30 2 1 2 3
M  V30 3 1 2 4
M  V30 4 1 3 5
M  V30 5 1 4 6
M  V30 6 1 4 7
M  V30 7 1 6 8
M  V30 8 1 6 9
M  V30 9 2 8 10
M  V30 10 1 8 11
M  V30 11 2 9 12
M  V30 12 1 9 13
M  V30 13 1 10 14
M  V30 14 1 10 15
M  V30 15 2 11 16
M  V30 16 1 11 17
M  V30 17 1 13 18
M  V30 18 2 14 19
M  V30 19 1 18 20
M  V30 20 1 5 7
M  V30 21 1 16 19
M  V30 END BOND
M  V30 END CTAB
M  END
>  <Molecule Name>
Oxadixyl

>  <Order (spectra)>
292

>  <NAME>
Oxadixyl

>  <Molecular Formula>
C14H18N2O4

>  <Monoisotopic Mass>
278.126658

>  <SMILES>
COCC(=O)N(N1CCOC1=O)C1=C(C)C=CC=C1C

>  <InChI>
InChI=1S/C14H18N2O4/c1-10-5-4-6-11(2)13(10)16(12(17)9-19-3)15-7-8-20-14(15)18/h4-6H,7-9H2,1-3H3

>  <InChIKey>
UWVQIROCRJWDKL-UHFFFAOYSA-N

>  <Kingdom>
Organic compounds

>  <Superclass>
Benzenoids

>  <Class>
Benzene and substituted derivatives

>  <Subclass>
Anilides

>  <Parent Level 1>
Anilides

>  <Parent Level 2>


>  <Parent Level 3>


>  <cLogP>
0.5188

>  <cLogS>
-1.945

>  <Druglikeness>
-0.082645

>  <NP-class probability>
0.05

>  <SmilesFragFp 3>


>  <MS_READY_SMILES>
COCC(=O)N(N1CCOC1=O)C1=C(C)C=CC=C1C

>  <MS_READY_InChI>
InChI=1S/C14H18N2O4/c1-10-5-4-6-11(2)13(10)16(12(17)9-19-3)15-7-8-20-14(15)18/h4-6H,7-9H2,1-3H3

>  <QSAR_READY_SMILES>
COCC(=O)N(N1CCOC1=O)C1=C(C)C=CC=C1C

>  <QSAR_READY_InChI>
InChI=1S/C14H18N2O4/c1-10-5-4-6-11(2)13(10)16(12(17)9-19-3)15-7-8-20-14(15)18/h4-6H,7-9H2,1-3H3

>  <DTXSID>
DTXSID2032631

>  <DTXCID>
DTXCID0012631

>  <CASRN>
77732-09-3

>  <EXPOCAST_MEDIAN_EXPOSURE_PREDICTION_MG/KG-BW/DAY>
2.93E-07

>  <BIOCONCENTRATION_FACTOR_TEST_PRED>
7.60326

>  <BOILING_POINT_DEGC_TEST_PRED>
-

>  <48HR_DAPHNIA_LC50_MOL/L_TEST_PRED>
3.67E-05

>  <DENSITY_G/CM^3_TEST_PRED>
1.208

>  <DEVTOX_TEST_PRED>
0.93

>  <96HR_FATHEAD_MINNOW_MOL/L_TEST_PRED>
2.55E-05

>  <FLASH_POINT_DEGC_TEST_PRED>
176.042

>  <MELTING_POINT_DEGC_TEST_PRED>
104.988

>  <AMES_MUTAGENICITY_TEST_PRED>
0.129

>  <ORAL_RAT_LD50_MOL/KG_TEST_PRED>
0.00289734

>  <SURFACE_TENSION_DYN/CM_TEST_PRED>
-

>  <THERMAL_CONDUCTIVITY_MW/(M*K)_TEST_PRED>
-

>  <TETRAHYMENA_PYRIFORMIS_IGC50_MOL/L_TEST_PRED>
-

>  <VISCOSITY_CP_CP_TEST_PRED>
-

>  <VAPOR_PRESSURE_MMHG_TEST_PRED>
2.01E-07

>  <WATER_SOLUBILITY_MOL/L_TEST_PRED>
0.00394457

>  <ATMOSPHERIC_HYDROXYLATION_RATE_(AOH)_CM3/MOLECULE*SEC_OPERA_PRED>
1.87E-11

>  <BIOCONCENTRATION_FACTOR_OPERA_PRED>
6.4141

>  <BIODEGRADATION_HALF_LIFE_DAYS_DAYS_OPERA_PRED>
4.29109

>  <BOILING_POINT_DEGC_OPERA_PRED>
358.439

>  <HENRYS_LAW_ATM-M3/MOLE_OPERA_PRED>
1.82E-09

>  <OPERA_KM_DAYS_OPERA_PRED>
0.202831

>  <OCTANOL_AIR_PARTITION_COEFF_LOGKOA_OPERA_PRED>
9.21127

>  <SOIL_ADSORPTION_COEFFICIENT_KOC_L/KG_OPERA_PRED>
194.861

>  <OCTANOL_WATER_PARTITION_LOGP_OPERA_PRED>
0.800557

>  <MELTING_POINT_DEGC_OPERA_PRED>
103.98

>  <VAPOR_PRESSURE_MMHG_OPERA_PRED>
2.49E-08

>  <WATER_SOLUBILITY_MOL/L_OPERA_PRED>
0.0122874

>  <Shape Index>
0.45

>  <Molecular Flexibility>
0.49252

>  <Molecular Complexity>
0.79764

>  <Electronegative Atoms>
6

>  <Stereo Centers>
0

>  <Rotatable Bonds>
4

>  <Rings Closures>
2

>  <Aromatic Rings>
1

>  <Aromatic Atoms>
6

>  <Amides>
0

>  <Amines>
0

>  <Aromatic Nitrogens>
0

>  <Shape Index 2>
0.45

>  <Molecular Flexibility 2>
0.49252

>  <Molecular Complexity 2>
0.79764

>  <Non-C/H Atoms>
6

>  <Electronegative Atoms 2>
6

>  <Stereo Centers 2>
0

>  <Rotatable Bonds 2>
4

>  <Rings Closures 2>
2

>  <Aromatic Rings 2>
1

>  <Aromatic Atoms 2>
6

>  <sp3-Atoms>
8

>  <Amides 2>
0

>  <Amines 2>
0

>  <Aromatic Nitrogens 2>
0

>  <Basic Nitrogens>
0

$$$$
Picoxystrobin
Actelion Java MolfileCreator 2.0

  0  0  0  0  0  0              0 V3000
M  V30 BEGIN CTAB
M  V30 COUNTS 26 27 0 0 0
M  V30 BEGIN ATOM
M  V30 1 F 0.0 0.0 0.0 0
M  V30 2 C -1.5135 0.0118 0.0 0
M  V30 3 F -1.5253 -1.478 0.0 0
M  V30 4 F -3.0271 0.0236 0.0 0
M  V30 5 C -1.5253 1.5253 0.0 0
M  V30 6 N -0.2364 2.2821 0.0 0
M  V30 7 C -2.8379 2.2821 0.0 0
M  V30 8 C -0.2483 3.7957 0.0 0
M  V30 9 C -2.8497 3.7957 0.0 0
M  V30 10 O 1.0405 4.5525 0.0 0
M  V30 11 C -1.5608 4.5525 0.0 0
M  V30 12 C 2.3294 3.8193 0.0 0
M  V30 13 C 3.6183 4.588 0.0 0
M  V30 14 C 4.9072 3.8548 0.0 0
M  V30 15 C 3.6065 6.1015 0.0 0
M  V30 16 C 4.8954 2.3649 0.0 0
M  V30 17 C 6.1961 4.6116 0.0 0
M  V30 18 C 4.8954 6.8583 0.0 0
M  V30 19 C 6.1843 1.6318 0.0 0
M  V30 20 C 3.5829 1.6318 0.0 0
M  V30 21 C 6.1843 6.1252 0.0 0
M  V30 22 O 6.1725 0.1418 0.0 0
M  V30 23 O 7.4732 2.3886 0.0 0
M  V30 24 O 2.2703 2.3886 0.0 0
M  V30 25 C 8.7621 1.6554 0.0 0
M  V30 26 C 0.9578 1.6554 0.0 0
M  V30 END ATOM
M  V30 BEGIN BOND
M  V30 1 1 1 2
M  V30 2 1 2 3
M  V30 3 1 2 4
M  V30 4 1 2 5
M  V30 5 2 5 6
M  V30 6 1 5 7
M  V30 7 1 6 8
M  V30 8 2 7 9
M  V30 9 1 8 10
M  V30 10 2 8 11
M  V30 11 1 10 12
M  V30 12 1 12 13
M  V30 13 2 13 14
M  V30 14 1 13 15
M  V30 15 1 14 16
M  V30 16 1 14 17
M  V30 17 2 15 18
M  V30 18 1 16 19
M  V30 19 2 16 20
M  V30 20 2 17 21
M  V30 21 2 19 22
M  V30 22 1 19 23
M  V30 23 1 20 24
M  V30 24 1 23 25
M  V30 25 1 24 26
M  V30 26 1 9 11
M  V30 27 1 18 21
M  V30 END BOND
M  V30 END CTAB
M  END
>  <Molecule Name>
Picoxystrobin

>  <Order (spectra)>
293

>  <NAME>
Picoxystrobin

>  <Molecular Formula>
C18H16NO4F3

>  <Monoisotopic Mass>
367.103143

>  <SMILES>
CO\C=C(\C(=O)OC)C1=C(COC2=NC(=CC=C2)C(F)(F)F)C=CC=C1

>  <InChI>
InChI=1S/C18H16F3NO4/c1-24-11-14(17(23)25-2)13-7-4-3-6-12(13)10-26-16-9-5-8-15(22-16)18(19,20)21/h3-9,11H,10H2,1-2H3

>  <InChIKey>
IBSNKSODLGJUMQ-SDNWHVSQSA-N

>  <Kingdom>
Organic compounds

>  <Superclass>
Benzenoids

>  <Class>
Benzene and substituted derivatives

>  <Subclass>
Phenyl-beta-methoxyacrylates

>  <Parent Level 1>
Phenyl-beta-methoxyacrylates

>  <Parent Level 2>


>  <Parent Level 3>


>  <cLogP>
2.7757

>  <cLogS>
-3.532

>  <Druglikeness>
-9.6378

>  <NP-class probability>
0.08

>  <SmilesFragFp 3>


>  <MS_READY_SMILES>
COC=C(C(=O)OC)C1=CC=CC=C1COC1=CC=CC(=N1)C(F)(F)F

>  <MS_READY_InChI>
InChI=1S/C18H16F3NO4/c1-24-11-14(17(23)25-2)13-7-4-3-6-12(13)10-26-16-9-5-8-15(22-16)18(19,20)21/h3-9,11H,10H2,1-2H3

>  <QSAR_READY_SMILES>
COC=C(C(=O)OC)C1=CC=CC=C1COC1=CC=CC(=N1)C(F)(F)F

>  <QSAR_READY_InChI>
InChI=1S/C18H16F3NO4/c1-24-11-14(17(23)25-2)13-7-4-3-6-12(13)10-26-16-9-5-8-15(22-16)18(19,20)21/h3-9,11H,10H2,1-2H3

>  <DTXSID>
DTXSID9047542

>  <DTXCID>
DTXCID7027542

>  <CASRN>
117428-22-5

>  <EXPOCAST_MEDIAN_EXPOSURE_PREDICTION_MG/KG-BW/DAY>
3.36E-07

>  <BIOCONCENTRATION_FACTOR_TEST_PRED>
-

>  <BOILING_POINT_DEGC_TEST_PRED>
408.728

>  <48HR_DAPHNIA_LC50_MOL/L_TEST_PRED>
2.21E-05

>  <DENSITY_G/CM^3_TEST_PRED>
1.279

>  <DEVTOX_TEST_PRED>
0.909

>  <96HR_FATHEAD_MINNOW_MOL/L_TEST_PRED>
1.80E-06

>  <FLASH_POINT_DEGC_TEST_PRED>
219.882

>  <MELTING_POINT_DEGC_TEST_PRED>
61.764

>  <AMES_MUTAGENICITY_TEST_PRED>
0.304

>  <ORAL_RAT_LD50_MOL/KG_TEST_PRED>
-

>  <SURFACE_TENSION_DYN/CM_TEST_PRED>
-

>  <THERMAL_CONDUCTIVITY_MW/(M*K)_TEST_PRED>
-

>  <TETRAHYMENA_PYRIFORMIS_IGC50_MOL/L_TEST_PRED>
-

>  <VISCOSITY_CP_CP_TEST_PRED>
-

>  <VAPOR_PRESSURE_MMHG_TEST_PRED>
9.23E-08

>  <WATER_SOLUBILITY_MOL/L_TEST_PRED>
4.13E-05

>  <ATMOSPHERIC_HYDROXYLATION_RATE_(AOH)_CM3/MOLECULE*SEC_OPERA_PRED>
1.67E-11

>  <BIOCONCENTRATION_FACTOR_OPERA_PRED>
61.6711

>  <BIODEGRADATION_HALF_LIFE_DAYS_DAYS_OPERA_PRED>
5.69468

>  <BOILING_POINT_DEGC_OPERA_PRED>
354.896

>  <HENRYS_LAW_ATM-M3/MOLE_OPERA_PRED>
3.90E-09

>  <OPERA_KM_DAYS_OPERA_PRED>
0.383439

>  <OCTANOL_AIR_PARTITION_COEFF_LOGKOA_OPERA_PRED>
9.59017

>  <SOIL_ADSORPTION_COEFFICIENT_KOC_L/KG_OPERA_PRED>
878.748

>  <OCTANOL_WATER_PARTITION_LOGP_OPERA_PRED>
3.70168

>  <MELTING_POINT_DEGC_OPERA_PRED>
47.2841

>  <VAPOR_PRESSURE_MMHG_OPERA_PRED>
4.68E-07

>  <WATER_SOLUBILITY_MOL/L_OPERA_PRED>
8.50E-06

>  <Shape Index>
0.5

>  <Molecular Flexibility>
0.49449

>  <Molecular Complexity>
0.808

>  <Electronegative Atoms>
8

>  <Stereo Centers>
0

>  <Rotatable Bonds>
8

>  <Rings Closures>
2

>  <Aromatic Rings>
2

>  <Aromatic Atoms>
12

>  <Amides>
0

>  <Amines>
0

>  <Aromatic Nitrogens>
1

>  <Shape Index 2>
0.5

>  <Molecular Flexibility 2>
0.49449

>  <Molecular Complexity 2>
0.808

>  <Non-C/H Atoms>
8

>  <Electronegative Atoms 2>
8

>  <Stereo Centers 2>
0

>  <Rotatable Bonds 2>
8

>  <Rings Closures 2>
2

>  <Aromatic Rings 2>
2

>  <Aromatic Atoms 2>
12

>  <sp3-Atoms>
7

>  <Amides 2>
0

>  <Amines 2>
0

>  <Aromatic Nitrogens 2>
1

>  <Basic Nitrogens>
0

$$$$
Pyracarbolid
Actelion Java MolfileCreator 2.0

  0  0  0  0  0  0              0 V3000
M  V30 BEGIN CTAB
M  V30 COUNTS 16 17 0 0 0
M  V30 BEGIN ATOM
M  V30 1 O 0.0 0.0 0.0 0
M  V30 2 C -1.3131 -0.7334 0.0 0
M  V30 3 N -2.6263 0.0236 0.0 0
M  V30 4 C -1.325 -2.2241 0.0 0
M  V30 5 C -3.9395 -0.7098 0.0 0
M  V30 6 C -0.0354 -2.9576 0.0 0
M  V30 7 C -2.6382 -2.9576 0.0 0
M  V30 8 C -5.2527 0.0473 0.0 0
M  V30 9 C -3.9513 -2.2004 0.0 0
M  V30 10 O -0.0473 -4.4482 0.0 0
M  V30 11 C 1.254 -2.2004 0.0 0
M  V30 12 C -2.65 -4.4482 0.0 0
M  V30 13 C -6.5659 -0.6861 0.0 0
M  V30 14 C -5.2645 -2.9339 0.0 0
M  V30 15 C -1.3605 -5.1935 0.0 0
M  V30 16 C -6.5777 -2.1768 0.0 0
M  V30 END ATOM
M  V30 BEGIN BOND
M  V30 1 2 1 2
M  V30 2 1 2 3
M  V30 3 1 2 4
M  V30 4 1 3 5
M  V30 5 2 4 6
M  V30 6 1 4 7
M  V30 7 2 5 8
M  V30 8 1 5 9
M  V30 9 1 6 10
M  V30 10 1 6 11
M  V30 11 1 7 12
M  V30 12 1 8 13
M  V30 13 2 9 14
M  V30 14 1 10 15
M  V30 15 2 13 16
M  V30 16 1 12 15
M  V30 17 1 14 16
M  V30 END BOND
M  V30 END CTAB
M  END
>  <Molecule Name>
Pyracarbolid

>  <Order (spectra)>
296

>  <NAME>
Pyracarbolid

>  <Molecular Formula>
C13H15NO2

>  <Monoisotopic Mass>
217.110279

>  <SMILES>
CC1=C(CCCO1)C(=O)NC1=CC=CC=C1

>  <InChI>
InChI=1S/C13H15NO2/c1-10-12(8-5-9-16-10)13(15)14-11-6-3-2-4-7-11/h2-4,6-7H,5,8-9H2,1H3,(H,14,15)

>  <InChIKey>
YPCALTGLHFLNGA-UHFFFAOYSA-N

>  <Kingdom>
Organic compounds

>  <Superclass>
Benzenoids

>  <Class>
Benzene and substituted derivatives

>  <Subclass>
Anilides

>  <Parent Level 1>
Anilides

>  <Parent Level 2>


>  <Parent Level 3>


>  <cLogP>
2.1159

>  <cLogS>
-2.839

>  <Druglikeness>
-3.4841

>  <NP-class probability>
0.23

>  <SmilesFragFp 3>


>  <MS_READY_SMILES>
CC1=C(CCCO1)C(=O)NC1=CC=CC=C1

>  <MS_READY_InChI>
InChI=1S/C13H15NO2/c1-10-12(8-5-9-16-10)13(15)14-11-6-3-2-4-7-11/h2-4,6-7H,5,8-9H2,1H3,(H,14,15)

>  <QSAR_READY_SMILES>
CC1=C(CCCO1)C(=O)NC1=CC=CC=C1

>  <QSAR_READY_InChI>
InChI=1S/C13H15NO2/c1-10-12(8-5-9-16-10)13(15)14-11-6-3-2-4-7-11/h2-4,6-7H,5,8-9H2,1H3,(H,14,15)

>  <DTXSID>
DTXSID50179432

>  <DTXCID>
DTXCID80101923

>  <CASRN>
24691-76-7

>  <EXPOCAST_MEDIAN_EXPOSURE_PREDICTION_MG/KG-BW/DAY>
1.98E-07

>  <BIOCONCENTRATION_FACTOR_TEST_PRED>
6.29506

>  <BOILING_POINT_DEGC_TEST_PRED>
351.721

>  <48HR_DAPHNIA_LC50_MOL/L_TEST_PRED>
6.10E-05

>  <DENSITY_G/CM^3_TEST_PRED>
1.18

>  <DEVTOX_TEST_PRED>
0.695

>  <96HR_FATHEAD_MINNOW_MOL/L_TEST_PRED>
3.42E-05

>  <FLASH_POINT_DEGC_TEST_PRED>
196.207

>  <MELTING_POINT_DEGC_TEST_PRED>
129.364

>  <AMES_MUTAGENICITY_TEST_PRED>
0.38

>  <ORAL_RAT_LD50_MOL/KG_TEST_PRED>
0.00746449

>  <SURFACE_TENSION_DYN/CM_TEST_PRED>
-

>  <THERMAL_CONDUCTIVITY_MW/(M*K)_TEST_PRED>
147.296

>  <TETRAHYMENA_PYRIFORMIS_IGC50_MOL/L_TEST_PRED>
0.000229615

>  <VISCOSITY_CP_CP_TEST_PRED>
43.5512

>  <VAPOR_PRESSURE_MMHG_TEST_PRED>
1.90E-07

>  <WATER_SOLUBILITY_MOL/L_TEST_PRED>
0.000325087

>  <ATMOSPHERIC_HYDROXYLATION_RATE_(AOH)_CM3/MOLECULE*SEC_OPERA_PRED>
3.16E-11

>  <BIOCONCENTRATION_FACTOR_OPERA_PRED>
12.4765

>  <BIODEGRADATION_HALF_LIFE_DAYS_DAYS_OPERA_PRED>
3.34133

>  <BOILING_POINT_DEGC_OPERA_PRED>
311.652

>  <HENRYS_LAW_ATM-M3/MOLE_OPERA_PRED>
3.62E-07

>  <OPERA_KM_DAYS_OPERA_PRED>
0.14212

>  <OCTANOL_AIR_PARTITION_COEFF_LOGKOA_OPERA_PRED>
10.1618

>  <SOIL_ADSORPTION_COEFFICIENT_KOC_L/KG_OPERA_PRED>
151.961

>  <OCTANOL_WATER_PARTITION_LOGP_OPERA_PRED>
2.35915

>  <MELTING_POINT_DEGC_OPERA_PRED>
110.54

>  <VAPOR_PRESSURE_MMHG_OPERA_PRED>
9.05E-07

>  <WATER_SOLUBILITY_MOL/L_OPERA_PRED>
0.00275331

>  <Shape Index>
0.625

>  <Molecular Flexibility>
0.49056

>  <Molecular Complexity>
0.63962

>  <Electronegative Atoms>
3

>  <Stereo Centers>
0

>  <Rotatable Bonds>
2

>  <Rings Closures>
2

>  <Aromatic Rings>
1

>  <Aromatic Atoms>
6

>  <Amides>
1

>  <Amines>
0

>  <Aromatic Nitrogens>
0

>  <Shape Index 2>
0.625

>  <Molecular Flexibility 2>
0.49056

>  <Molecular Complexity 2>
0.63962

>  <Non-C/H Atoms>
3

>  <Electronegative Atoms 2>
3

>  <Stereo Centers 2>
0

>  <Rotatable Bonds 2>
2

>  <Rings Closures 2>
2

>  <Aromatic Rings 2>
1

>  <Aromatic Atoms 2>
6

>  <sp3-Atoms>
5

>  <Amides 2>
1

>  <Amines 2>
0

>  <Aromatic Nitrogens 2>
0

>  <Basic Nitrogens>
0

$$$$
Pyrimethanil
Actelion Java MolfileCreator 2.0

  0  0  0  0  0  0              0 V3000
M  V30 BEGIN CTAB
M  V30 COUNTS 15 16 0 0 0
M  V30 BEGIN ATOM
M  V30 1 N 0.0 0.0 0.0 0
M  V30 2 C -1.314 -0.7339 0.0 0
M  V30 3 C 1.2903 -0.7339 0.0 0
M  V30 4 N -1.3258 -2.2256 0.0 0
M  V30 5 N -2.6281 0.0236 0.0 0
M  V30 6 C 1.2785 -2.2256 0.0 0
M  V30 7 C 2.5807 0.0236 0.0 0
M  V30 8 C -0.0355 -2.9595 0.0 0
M  V30 9 C -3.9421 -0.7102 0.0 0
M  V30 10 C -0.0473 -4.4512 0.0 0
M  V30 11 C -5.2562 0.0473 0.0 0
M  V30 12 C -3.954 -2.2019 0.0 0
M  V30 13 C -6.5702 -0.6866 0.0 0
M  V30 14 C -5.268 -2.9359 0.0 0
M  V30 15 C -6.5821 -2.1782 0.0 0
M  V30 END ATOM
M  V30 BEGIN BOND
M  V30 1 2 1 2
M  V30 2 1 1 3
M  V30 3 1 2 4
M  V30 4 1 2 5
M  V30 5 2 3 6
M  V30 6 1 3 7
M  V30 7 2 4 8
M  V30 8 1 5 9
M  V30 9 1 8 10
M  V30 10 2 9 11
M  V30 11 1 9 12
M  V30 12 1 11 13
M  V30 13 2 12 14
M  V30 14 2 13 15
M  V30 15 1 6 8
M  V30 16 1 14 15
M  V30 END BOND
M  V30 END CTAB
M  END
>  <Molecule Name>
Pyrimethanil

>  <Order (spectra)>
297

>  <NAME>
Pyrimethanil

>  <Molecular Formula>
C12H13N3

>  <Monoisotopic Mass>
199.110947

>  <SMILES>
CC1=CC(C)=NC(NC2=CC=CC=C2)=N1

>  <InChI>
InChI=1S/C12H13N3/c1-9-8-10(2)14-12(13-9)15-11-6-4-3-5-7-11/h3-8H,1-2H3,(H,13,14,15)

>  <InChIKey>
ZLIBICFPKPWGIZ-UHFFFAOYSA-N

>  <Kingdom>
Organic compounds

>  <Superclass>
Benzenoids

>  <Class>
Benzene and substituted derivatives

>  <Subclass>
Aniline and substituted anilines

>  <Parent Level 1>
Aniline and substituted anilines

>  <Parent Level 2>


>  <Parent Level 3>


>  <cLogP>
2.7921

>  <cLogS>
-3.197

>  <Druglikeness>
-1.0024

>  <NP-class probability>
0.15

>  <SmilesFragFp 3>


>  <MS_READY_SMILES>
CC1=CC(C)=NC(NC2=CC=CC=C2)=N1

>  <MS_READY_InChI>
InChI=1S/C12H13N3/c1-9-8-10(2)14-12(13-9)15-11-6-4-3-5-7-11/h3-8H,1-2H3,(H,13,14,15)

>  <QSAR_READY_SMILES>
CC1=CC(C)=NC(NC2=CC=CC=C2)=N1

>  <QSAR_READY_InChI>
InChI=1S/C12H13N3/c1-9-8-10(2)14-12(13-9)15-11-6-4-3-5-7-11/h3-8H,1-2H3,(H,13,14,15)

>  <DTXSID>
DTXSID8034877

>  <DTXCID>
DTXCID6014877

>  <CASRN>
53112-28-0

>  <EXPOCAST_MEDIAN_EXPOSURE_PREDICTION_MG/KG-BW/DAY>
3.56E-07

>  <BIOCONCENTRATION_FACTOR_TEST_PRED>
15.8489

>  <BOILING_POINT_DEGC_TEST_PRED>
331.186

>  <48HR_DAPHNIA_LC50_MOL/L_TEST_PRED>
0.00010666

>  <DENSITY_G/CM^3_TEST_PRED>
1.133

>  <DEVTOX_TEST_PRED>
0.531

>  <96HR_FATHEAD_MINNOW_MOL/L_TEST_PRED>
6.85E-05

>  <FLASH_POINT_DEGC_TEST_PRED>
172.026

>  <MELTING_POINT_DEGC_TEST_PRED>
130.022

>  <AMES_MUTAGENICITY_TEST_PRED>
0.486

>  <ORAL_RAT_LD50_MOL/KG_TEST_PRED>
0.00656145

>  <SURFACE_TENSION_DYN/CM_TEST_PRED>
-

>  <THERMAL_CONDUCTIVITY_MW/(M*K)_TEST_PRED>
144.891

>  <TETRAHYMENA_PYRIFORMIS_IGC50_MOL/L_TEST_PRED>
0.000181134

>  <VISCOSITY_CP_CP_TEST_PRED>
-

>  <VAPOR_PRESSURE_MMHG_TEST_PRED>
3.59E-06

>  <WATER_SOLUBILITY_MOL/L_TEST_PRED>
0.00111429

>  <ATMOSPHERIC_HYDROXYLATION_RATE_(AOH)_CM3/MOLECULE*SEC_OPERA_PRED>
1.82E-11

>  <BIOCONCENTRATION_FACTOR_OPERA_PRED>
15.2147

>  <BIODEGRADATION_HALF_LIFE_DAYS_DAYS_OPERA_PRED>
4.31527

>  <BOILING_POINT_DEGC_OPERA_PRED>
324.217

>  <HENRYS_LAW_ATM-M3/MOLE_OPERA_PRED>
1.38E-07

>  <OPERA_KM_DAYS_OPERA_PRED>
0.806753

>  <OCTANOL_AIR_PARTITION_COEFF_LOGKOA_OPERA_PRED>
10.4063

>  <SOIL_ADSORPTION_COEFFICIENT_KOC_L/KG_OPERA_PRED>
736.665

>  <OCTANOL_WATER_PARTITION_LOGP_OPERA_PRED>
2.84142

>  <MELTING_POINT_DEGC_OPERA_PRED>
96.3769

>  <VAPOR_PRESSURE_MMHG_OPERA_PRED>
1.64E-05

>  <WATER_SOLUBILITY_MOL/L_OPERA_PRED>
0.000598012

>  <Shape Index>
0.6

>  <Molecular Flexibility>
0.47413

>  <Molecular Complexity>
0.58006

>  <Electronegative Atoms>
3

>  <Stereo Centers>
0

>  <Rotatable Bonds>
2

>  <Rings Closures>
2

>  <Aromatic Rings>
2

>  <Aromatic Atoms>
12

>  <Amides>
0

>  <Amines>
0

>  <Aromatic Nitrogens>
2

>  <Shape Index 2>
0.6

>  <Molecular Flexibility 2>
0.47413

>  <Molecular Complexity 2>
0.58006

>  <Non-C/H Atoms>
3

>  <Electronegative Atoms 2>
3

>  <Stereo Centers 2>
0

>  <Rotatable Bonds 2>
2

>  <Rings Closures 2>
2

>  <Aromatic Rings 2>
2

>  <Aromatic Atoms 2>
12

>  <sp3-Atoms>
2

>  <Amides 2>
0

>  <Amines 2>
0

>  <Aromatic Nitrogens 2>
2

>  <Basic Nitrogens>
0

$$$$
Pyriproxyfen
Actelion Java MolfileCreator 2.0

  0  0  0  0  0  0              0 V3000
M  V30 BEGIN CTAB
M  V30 COUNTS 24 26 0 0 0
M  V30 BEGIN ATOM
M  V30 1 O 0.0 0.0 0.0 0
M  V30 2 C -1.3082 -0.7307 0.0 0
M  V30 3 C -0.0117 1.5086 0.0 0
M  V30 4 C -2.6165 0.0235 0.0 0
M  V30 5 C -1.32 -2.2157 0.0 0
M  V30 6 C 1.2728 2.2629 0.0 0
M  V30 7 C -1.32 2.2747 0.0 0
M  V30 8 C -3.9247 -0.7071 0.0 0
M  V30 9 C -2.6282 -2.9465 0.0 0
M  V30 10 C 1.2611 3.7715 0.0 0
M  V30 11 C -1.3318 3.7833 0.0 0
M  V30 12 C -3.9365 -2.1922 0.0 0
M  V30 13 C -0.0471 4.5258 0.0 0
M  V30 14 O -5.2447 -2.9229 0.0 0
M  V30 15 C -6.553 -2.1686 0.0 0
M  V30 16 C -7.8612 -2.8993 0.0 0 CFG=1
M  V30 17 O -9.1695 -2.145 0.0 0
M  V30 18 C -7.873 -4.3844 0.0 0
M  V30 19 C -10.4778 -2.8757 0.0 0
M  V30 20 N -11.786 -2.1214 0.0 0
M  V30 21 C -10.4895 -4.3608 0.0 0
M  V30 22 C -13.0943 -2.8522 0.0 0
M  V30 23 C -11.7978 -5.0915 0.0 0
M  V30 24 C -13.106 -4.3372 0.0 0
M  V30 END ATOM
M  V30 BEGIN BOND
M  V30 1 1 1 2
M  V30 2 1 1 3
M  V30 3 2 2 4
M  V30 4 1 2 5
M  V30 5 2 3 6
M  V30 6 1 3 7
M  V30 7 1 4 8
M  V30 8 2 5 9
M  V30 9 1 6 10
M  V30 10 2 7 11
M  V30 11 2 8 12
M  V30 12 2 10 13
M  V30 13 1 12 14
M  V30 14 1 14 15
M  V30 15 1 15 16
M  V30 16 1 16 17 CFG=3
M  V30 17 1 16 18
M  V30 18 1 17 19
M  V30 19 2 19 20
M  V30 20 1 19 21
M  V30 21 1 20 22
M  V30 22 2 21 23
M  V30 23 2 22 24
M  V30 24 1 9 12
M  V30 25 1 11 13
M  V30 26 1 23 24
M  V30 END BOND
M  V30 BEGIN COLLECTION
M  V30 MDLV30/STERAC1 ATOMS=(1 16)
M  V30 END COLLECTION
M  V30 END CTAB
M  END
>  <Molecule Name>
Pyriproxyfen

>  <Order (spectra)>
298

>  <NAME>
Pyriproxyfen

>  <Molecular Formula>
C20H19NO3

>  <Monoisotopic Mass>
321.136494

>  <SMILES>
CC(COC1=CC=C(OC2=CC=CC=C2)C=C1)OC1=NC=CC=C1

>  <InChI>
InChI=1S/C20H19NO3/c1-16(23-20-9-5-6-14-21-20)15-22-17-10-12-19(13-11-17)24-18-7-3-2-4-8-18/h2-14,16H,15H2,1H3/t16-/m0/s1

>  <InChIKey>
NHDHVHZZCFYRSB-UHFFFAOYSA-N

>  <Kingdom>
Organic compounds

>  <Superclass>
Benzenoids

>  <Class>
Benzene and substituted derivatives

>  <Subclass>
Diphenylethers

>  <Parent Level 1>
Diphenylethers

>  <Parent Level 2>


>  <Parent Level 3>


>  <cLogP>
4.12

>  <cLogS>
-5.289

>  <Druglikeness>
-0.75982

>  <NP-class probability>
0.19

>  <SmilesFragFp 3>


>  <MS_READY_SMILES>
CC(COC1=CC=C(OC2=CC=CC=C2)C=C1)OC1=NC=CC=C1

>  <MS_READY_InChI>
InChI=1S/C20H19NO3/c1-16(23-20-9-5-6-14-21-20)15-22-17-10-12-19(13-11-17)24-18-7-3-2-4-8-18/h2-14,16H,15H2,1H3/t16-/m0/s1

>  <QSAR_READY_SMILES>
CC(COC1=CC=C(OC2=CC=CC=C2)C=C1)OC1=NC=CC=C1

>  <QSAR_READY_InChI>
InChI=1S/C20H19NO3/c1-16(23-20-9-5-6-14-21-20)15-22-17-10-12-19(13-11-17)24-18-7-3-2-4-8-18/h2-14,16H,15H2,1H3/t16-/m0/s1

>  <DTXSID>
DTXSID1032640

>  <DTXCID>
DTXCID9012640

>  <CASRN>
95737-68-1

>  <EXPOCAST_MEDIAN_EXPOSURE_PREDICTION_MG/KG-BW/DAY>
2.62E-07

>  <BIOCONCENTRATION_FACTOR_TEST_PRED>
133.352

>  <BOILING_POINT_DEGC_TEST_PRED>
390.201

>  <48HR_DAPHNIA_LC50_MOL/L_TEST_PRED>
6.93E-07

>  <DENSITY_G/CM^3_TEST_PRED>
1.19

>  <DEVTOX_TEST_PRED>
0.593

>  <96HR_FATHEAD_MINNOW_MOL/L_TEST_PRED>
7.26E-07

>  <FLASH_POINT_DEGC_TEST_PRED>
218.188

>  <MELTING_POINT_DEGC_TEST_PRED>
65.829

>  <AMES_MUTAGENICITY_TEST_PRED>
0.473

>  <ORAL_RAT_LD50_MOL/KG_TEST_PRED>
-

>  <SURFACE_TENSION_DYN/CM_TEST_PRED>
-

>  <THERMAL_CONDUCTIVITY_MW/(M*K)_TEST_PRED>
142.721

>  <TETRAHYMENA_PYRIFORMIS_IGC50_MOL/L_TEST_PRED>
4.45E-06

>  <VISCOSITY_CP_CP_TEST_PRED>
-

>  <VAPOR_PRESSURE_MMHG_TEST_PRED>
1.62E-07

>  <WATER_SOLUBILITY_MOL/L_TEST_PRED>
1.08E-06

>  <ATMOSPHERIC_HYDROXYLATION_RATE_(AOH)_CM3/MOLECULE*SEC_OPERA_PRED>
1.75E-11

>  <BIOCONCENTRATION_FACTOR_OPERA_PRED>
535.644

>  <BIODEGRADATION_HALF_LIFE_DAYS_DAYS_OPERA_PRED>
3.64818

>  <BOILING_POINT_DEGC_OPERA_PRED>
376.482

>  <HENRYS_LAW_ATM-M3/MOLE_OPERA_PRED>
6.21E-06

>  <OPERA_KM_DAYS_OPERA_PRED>
1.02455

>  <OCTANOL_AIR_PARTITION_COEFF_LOGKOA_OPERA_PRED>
10.3268

>  <SOIL_ADSORPTION_COEFFICIENT_KOC_L/KG_OPERA_PRED>
8779.75

>  <OCTANOL_WATER_PARTITION_LOGP_OPERA_PRED>
4.19946

>  <MELTING_POINT_DEGC_OPERA_PRED>
46.2777

>  <VAPOR_PRESSURE_MMHG_OPERA_PRED>
2.17E-06

>  <WATER_SOLUBILITY_MOL/L_OPERA_PRED>
0.000001151

>  <Shape Index>
0.70833

>  <Molecular Flexibility>
0.50716

>  <Molecular Complexity>
0.626

>  <Electronegative Atoms>
4

>  <Stereo Centers>
1

>  <Rotatable Bonds>
7

>  <Rings Closures>
3

>  <Aromatic Rings>
3

>  <Aromatic Atoms>
18

>  <Amides>
0

>  <Amines>
0

>  <Aromatic Nitrogens>
1

>  <Shape Index 2>
0.70833

>  <Molecular Flexibility 2>
0.50716

>  <Molecular Complexity 2>
0.626

>  <Non-C/H Atoms>
4

>  <Electronegative Atoms 2>
4

>  <Stereo Centers 2>
1

>  <Rotatable Bonds 2>
7

>  <Rings Closures 2>
3

>  <Aromatic Rings 2>
3

>  <Aromatic Atoms 2>
18

>  <sp3-Atoms>
6

>  <Amides 2>
0

>  <Amines 2>
0

>  <Aromatic Nitrogens 2>
1

>  <Basic Nitrogens>
0

$$$$
Trifloxystrobin
Actelion Java MolfileCreator 2.0

  0  0  0  0  0  0              0 V3000
M  V30 BEGIN CTAB
M  V30 COUNTS 29 30 0 0 0
M  V30 BEGIN ATOM
M  V30 1 F 0.0 0.0 0.0 0
M  V30 2 C -1.5134 0.0118 0.0 0
M  V30 3 F -1.5252 -1.478 0.0 0
M  V30 4 F -3.0269 0.0236 0.0 0
M  V30 5 C -1.5252 1.5252 0.0 0
M  V30 6 C -0.2364 2.282 0.0 0
M  V30 7 C -2.8377 2.282 0.0 0
M  V30 8 C -0.2483 3.7955 0.0 0
M  V30 9 C -2.8495 3.7955 0.0 0
M  V30 10 C 1.0405 4.5522 0.0 0
M  V30 11 C -1.5607 4.5522 0.0 0
M  V30 12 N 2.3293 3.8073 0.0 0
M  V30 13 C 1.0286 6.0657 0.0 0
M  V30 14 O 3.6181 4.564 0.0 0
M  V30 15 C 4.9069 3.8191 0.0 0
M  V30 16 C 6.1957 4.5877 0.0 0
M  V30 17 C 7.4846 3.8546 0.0 0
M  V30 18 C 6.1839 6.1011 0.0 0
M  V30 19 C 7.4727 2.3648 0.0 0
M  V30 20 C 8.7734 4.6113 0.0 0
M  V30 21 C 7.4727 6.8579 0.0 0
M  V30 22 N 8.7615 1.6317 0.0 0
M  V30 23 C 6.1603 1.6317 0.0 0
M  V30 24 C 8.7615 6.1248 0.0 0
M  V30 25 O 10.0504 2.3884 0.0 0
M  V30 26 O 6.1484 0.1418 0.0 0
M  V30 27 O 4.8478 2.3884 0.0 0
M  V30 28 C 11.3392 1.6553 0.0 0
M  V30 29 C 3.5353 1.6553 0.0 0
M  V30 END ATOM
M  V30 BEGIN BOND
M  V30 1 1 1 2
M  V30 2 1 2 3
M  V30 3 1 2 4
M  V30 4 1 2 5
M  V30 5 2 5 6
M  V30 6 1 5 7
M  V30 7 1 6 8
M  V30 8 2 7 9
M  V30 9 1 8 10
M  V30 10 2 8 11
M  V30 11 2 10 12 CFG=2
M  V30 12 1 10 13
M  V30 13 1 12 14
M  V30 14 1 14 15
M  V30 15 1 15 16
M  V30 16 2 16 17
M  V30 17 1 16 18
M  V30 18 1 17 19
M  V30 19 1 17 20
M  V30 20 2 18 21
M  V30 21 2 19 22 CFG=2
M  V30 22 1 19 23
M  V30 23 2 20 24
M  V30 24 1 22 25
M  V30 25 2 23 26
M  V30 26 1 23 27
M  V30 27 1 25 28
M  V30 28 1 27 29
M  V30 29 1 9 11
M  V30 30 1 21 24
M  V30 END BOND
M  V30 END CTAB
M  END
>  <Molecule Name>
Trifloxystrobin

>  <Order (spectra)>
301

>  <NAME>
Trifloxystrobin

>  <Molecular Formula>
C20H19N2O4F3

>  <Monoisotopic Mass>
408.129692

>  <SMILES>
CC(=NOCC1=CC=CC=C1C(=NOC)C(=O)OC)C2=CC(=CC=C2)C(F)(F)F

>  <InChI>
InChI=1S/C20H19F3N2O4/c1-13(14-8-6-9-16(11-14)20(21,22)23)24-29-12-15-7-4-5-10-17(15)18(25-28-3)19(26)27-2/h4-11H,12H2,1-3H3

>  <InChIKey>
ONCZDRURRATYFI-UHFFFAOYSA-N

>  <Kingdom>
Organic compounds

>  <Superclass>
Benzenoids

>  <Class>
Benzene and substituted derivatives

>  <Subclass>
Trifluoromethylbenzenes

>  <Parent Level 1>
Trifluoromethylbenzenes

>  <Parent Level 2>


>  <Parent Level 3>


>  <cLogP>
4.4694

>  <cLogS>
-5.446

>  <Druglikeness>
-6.4734

>  <NP-class probability>
0.14

>  <SmilesFragFp 3>


>  <MS_READY_SMILES>
-

>  <MS_READY_InChI>


>  <QSAR_READY_SMILES>
-

>  <QSAR_READY_InChI>


>  <DTXSID>
-

>  <DTXCID>
-

>  <CASRN>
-

>  <EXPOCAST_MEDIAN_EXPOSURE_PREDICTION_MG/KG-BW/DAY>
-

>  <BIOCONCENTRATION_FACTOR_TEST_PRED>
-

>  <BOILING_POINT_DEGC_TEST_PRED>
-

>  <48HR_DAPHNIA_LC50_MOL/L_TEST_PRED>
-

>  <DENSITY_G/CM^3_TEST_PRED>
-

>  <DEVTOX_TEST_PRED>
-

>  <96HR_FATHEAD_MINNOW_MOL/L_TEST_PRED>
-

>  <FLASH_POINT_DEGC_TEST_PRED>
-

>  <MELTING_POINT_DEGC_TEST_PRED>
-

>  <AMES_MUTAGENICITY_TEST_PRED>
-

>  <ORAL_RAT_LD50_MOL/KG_TEST_PRED>
-

>  <SURFACE_TENSION_DYN/CM_TEST_PRED>
-

>  <THERMAL_CONDUCTIVITY_MW/(M*K)_TEST_PRED>
-

>  <TETRAHYMENA_PYRIFORMIS_IGC50_MOL/L_TEST_PRED>
-

>  <VISCOSITY_CP_CP_TEST_PRED>
-

>  <VAPOR_PRESSURE_MMHG_TEST_PRED>
-

>  <WATER_SOLUBILITY_MOL/L_TEST_PRED>
-

>  <ATMOSPHERIC_HYDROXYLATION_RATE_(AOH)_CM3/MOLECULE*SEC_OPERA_PRED>
-

>  <BIOCONCENTRATION_FACTOR_OPERA_PRED>
-

>  <BIODEGRADATION_HALF_LIFE_DAYS_DAYS_OPERA_PRED>
-

>  <BOILING_POINT_DEGC_OPERA_PRED>
-

>  <HENRYS_LAW_ATM-M3/MOLE_OPERA_PRED>
-

>  <OPERA_KM_DAYS_OPERA_PRED>
-

>  <OCTANOL_AIR_PARTITION_COEFF_LOGKOA_OPERA_PRED>
-

>  <SOIL_ADSORPTION_COEFFICIENT_KOC_L/KG_OPERA_PRED>
-

>  <OCTANOL_WATER_PARTITION_LOGP_OPERA_PRED>
-

>  <MELTING_POINT_DEGC_OPERA_PRED>
-

>  <VAPOR_PRESSURE_MMHG_OPERA_PRED>
-

>  <WATER_SOLUBILITY_MOL/L_OPERA_PRED>
-

>  <Shape Index>
0.51724

>  <Molecular Flexibility>
0.4978

>  <Molecular Complexity>
0.81766

>  <Electronegative Atoms>
9

>  <Stereo Centers>
0

>  <Rotatable Bonds>
9

>  <Rings Closures>
2

>  <Aromatic Rings>
2

>  <Aromatic Atoms>
12

>  <Amides>
0

>  <Amines>
0

>  <Aromatic Nitrogens>
0

>  <Shape Index 2>
0.51724

>  <Molecular Flexibility 2>
0.4978

>  <Molecular Complexity 2>
0.81766

>  <Non-C/H Atoms>
9

>  <Electronegative Atoms 2>
9

>  <Stereo Centers 2>
0

>  <Rotatable Bonds 2>
9

>  <Rings Closures 2>
2

>  <Aromatic Rings 2>
2

>  <Aromatic Atoms 2>
12

>  <sp3-Atoms>
8

>  <Amides 2>
0

>  <Amines 2>
0

>  <Aromatic Nitrogens 2>
0

>  <Basic Nitrogens>
0

$$$$
Zoxamide
Actelion Java MolfileCreator 2.0

  0  0  0  0  0  0              0 V3000
M  V30 BEGIN CTAB
M  V30 COUNTS 20 20 0 0 0
M  V30 BEGIN ATOM
M  V30 1 Cl 0.0 0.0 0.0 0
M  V30 2 C -0.0117 1.5076 0.0 0
M  V30 3 C 1.272 2.2614 0.0 0
M  V30 4 C -1.3191 2.2614 0.0 0
M  V30 5 C 1.2602 3.769 0.0 0
M  V30 6 C 2.5558 1.5193 0.0 0
M  V30 7 C -1.3309 3.769 0.0 0
M  V30 8 Cl 2.5441 4.5228 0.0 0
M  V30 9 C -0.0471 4.5228 0.0 0
M  V30 10 C -2.6383 4.5228 0.0 0
M  V30 11 O -2.6501 6.0304 0.0 0
M  V30 12 N -3.9457 3.7808 0.0 0
M  V30 13 C -5.2531 4.5346 0.0 0 CFG=2
M  V30 14 C -6.5604 3.7925 0.0 0
M  V30 15 C -5.2648 6.0422 0.0 0
M  V30 16 C -5.2648 3.0505 0.0 0
M  V30 17 O -6.5722 2.3085 0.0 0
M  V30 18 C -7.8678 4.5464 0.0 0
M  V30 19 C -3.981 6.796 0.0 0
M  V30 20 Cl -9.1752 3.8043 0.0 0
M  V30 END ATOM
M  V30 BEGIN BOND
M  V30 1 1 1 2
M  V30 2 2 2 3
M  V30 3 1 2 4
M  V30 4 1 3 5
M  V30 5 1 3 6
M  V30 6 2 4 7
M  V30 7 1 5 8
M  V30 8 2 5 9
M  V30 9 1 7 10
M  V30 10 2 10 11
M  V30 11 1 10 12
M  V30 12 1 12 13
M  V30 13 1 13 14
M  V30 14 1 13 15
M  V30 15 1 13 16 CFG=1
M  V30 16 2 14 17
M  V30 17 1 14 18
M  V30 18 1 15 19
M  V30 19 1 18 20
M  V30 20 1 7 9
M  V30 END BOND
M  V30 BEGIN COLLECTION
M  V30 MDLV30/STERAC1 ATOMS=(1 13)
M  V30 END COLLECTION
M  V30 END CTAB
M  END
>  <Molecule Name>
Zoxamide

>  <Order (spectra)>
302

>  <NAME>
Zoxamide

>  <Molecular Formula>
C14H16NO2Cl3

>  <Monoisotopic Mass>
335.02466

>  <SMILES>
CCC(C)(NC(=O)C1=CC(Cl)=C(C)C(Cl)=C1)C(=O)CCl

>  <InChI>
InChI=1S/C14H16Cl3NO2/c1-4-14(3,12(19)7-15)18-13(20)9-5-10(16)8(2)11(17)6-9/h5-6H,4,7H2,1-3H3,(H,18,20)/t14-/m0/s1

>  <InChIKey>
SOUGWDPPRBKJEX-UHFFFAOYSA-N

>  <Kingdom>
Organic compounds

>  <Superclass>
Benzenoids

>  <Class>
Benzene and substituted derivatives

>  <Subclass>
Halobenzenes

>  <Parent Level 1>
Chlorobenzenes

>  <Parent Level 2>
Dichlorobenzenes

>  <Parent Level 3>


>  <cLogP>
3.8856

>  <cLogS>
-4.817

>  <Druglikeness>
4.63

>  <NP-class probability>
0.03

>  <SmilesFragFp 3>


>  <MS_READY_SMILES>
CCC(C)(NC(=O)C1=CC(Cl)=C(C)C(Cl)=C1)C(=O)CCl

>  <MS_READY_InChI>
InChI=1S/C14H16Cl3NO2/c1-4-14(3,12(19)7-15)18-13(20)9-5-10(16)8(2)11(17)6-9/h5-6H,4,7H2,1-3H3,(H,18,20)/t14-/m0/s1

>  <QSAR_READY_SMILES>
CCC(C)(NC(=O)C1=CC(Cl)=C(C)C(Cl)=C1)C(=O)CCl

>  <QSAR_READY_InChI>
InChI=1S/C14H16Cl3NO2/c1-4-14(3,12(19)7-15)18-13(20)9-5-10(16)8(2)11(17)6-9/h5-6H,4,7H2,1-3H3,(H,18,20)/t14-/m0/s1

>  <DTXSID>
DTXSID9032581

>  <DTXCID>
DTXCID7012581

>  <CASRN>
156052-68-5

>  <EXPOCAST_MEDIAN_EXPOSURE_PREDICTION_MG/KG-BW/DAY>
3.25E-07

>  <BIOCONCENTRATION_FACTOR_TEST_PRED>
16.0325

>  <BOILING_POINT_DEGC_TEST_PRED>
400.131

>  <48HR_DAPHNIA_LC50_MOL/L_TEST_PRED>
2.83E-05

>  <DENSITY_G/CM^3_TEST_PRED>
1.359

>  <DEVTOX_TEST_PRED>
0.774

>  <96HR_FATHEAD_MINNOW_MOL/L_TEST_PRED>
3.41E-06

>  <FLASH_POINT_DEGC_TEST_PRED>
231.772

>  <MELTING_POINT_DEGC_TEST_PRED>
143.047

>  <AMES_MUTAGENICITY_TEST_PRED>
0.041

>  <ORAL_RAT_LD50_MOL/KG_TEST_PRED>
0.00130918

>  <SURFACE_TENSION_DYN/CM_TEST_PRED>
-

>  <THERMAL_CONDUCTIVITY_MW/(M*K)_TEST_PRED>
-

>  <TETRAHYMENA_PYRIFORMIS_IGC50_MOL/L_TEST_PRED>
6.08E-06

>  <VISCOSITY_CP_CP_TEST_PRED>
-

>  <VAPOR_PRESSURE_MMHG_TEST_PRED>
3.81E-07

>  <WATER_SOLUBILITY_MOL/L_TEST_PRED>
2.95E-05

>  <ATMOSPHERIC_HYDROXYLATION_RATE_(AOH)_CM3/MOLECULE*SEC_OPERA_PRED>
1.88E-11

>  <BIOCONCENTRATION_FACTOR_OPERA_PRED>
109.319

>  <BIODEGRADATION_HALF_LIFE_DAYS_DAYS_OPERA_PRED>
3.16936

>  <BOILING_POINT_DEGC_OPERA_PRED>
339.363

>  <HENRYS_LAW_ATM-M3/MOLE_OPERA_PRED>
1.30E-09

>  <OPERA_KM_DAYS_OPERA_PRED>
1.44824

>  <OCTANOL_AIR_PARTITION_COEFF_LOGKOA_OPERA_PRED>
10.7827

>  <SOIL_ADSORPTION_COEFFICIENT_KOC_L/KG_OPERA_PRED>
612.91

>  <OCTANOL_WATER_PARTITION_LOGP_OPERA_PRED>
3.75938

>  <MELTING_POINT_DEGC_OPERA_PRED>
107.848

>  <VAPOR_PRESSURE_MMHG_OPERA_PRED>
2.11E-06

>  <WATER_SOLUBILITY_MOL/L_OPERA_PRED>
2.06E-06

>  <Shape Index>
0.55

>  <Molecular Flexibility>
0.57789

>  <Molecular Complexity>
0.74499

>  <Electronegative Atoms>
6

>  <Stereo Centers>
1

>  <Rotatable Bonds>
5

>  <Rings Closures>
1

>  <Aromatic Rings>
1

>  <Aromatic Atoms>
6

>  <Amides>
1

>  <Amines>
0

>  <Aromatic Nitrogens>
0

>  <Shape Index 2>
0.55

>  <Molecular Flexibility 2>
0.57789

>  <Molecular Complexity 2>
0.74499

>  <Non-C/H Atoms>
6

>  <Electronegative Atoms 2>
6

>  <Stereo Centers 2>
1

>  <Rotatable Bonds 2>
5

>  <Rings Closures 2>
1

>  <Aromatic Rings 2>
1

>  <Aromatic Atoms 2>
6

>  <sp3-Atoms>
6

>  <Amides 2>
1

>  <Amines 2>
0

>  <Aromatic Nitrogens 2>
0

>  <Basic Nitrogens>
0

$$$$
Amitraz
Actelion Java MolfileCreator 2.0

  0  0  0  0  0  0              0 V3000
M  V30 BEGIN CTAB
M  V30 COUNTS 22 23 0 0 0
M  V30 BEGIN ATOM
M  V30 1 N 0.0 0.0 0.0 0
M  V30 2 C 1.287 -0.7438 0.0 0
M  V30 3 C -1.3106 -0.7438 0.0 0
M  V30 4 C 1.2752 -2.2316 0.0 0
M  V30 5 C 2.574 0.0118 0.0 0
M  V30 6 N -2.6212 0.0118 0.0 0
M  V30 7 C 2.5622 -2.9754 0.0 0
M  V30 8 C -0.0354 -2.9636 0.0 0
M  V30 9 C 3.861 -0.732 0.0 0
M  V30 10 C -3.9318 -0.732 0.0 0
M  V30 11 C -2.633 1.5231 0.0 0
M  V30 12 C 3.8492 -2.2198 0.0 0
M  V30 13 N -5.2425 0.0236 0.0 0
M  V30 14 C 5.1362 -2.9636 0.0 0
M  V30 15 C -6.5531 -0.7202 0.0 0
M  V30 16 C -7.8637 0.0354 0.0 0
M  V30 17 C -6.5649 -2.208 0.0 0
M  V30 18 C -9.1744 -0.6966 0.0 0
M  V30 19 C -7.8755 1.5467 0.0 0
M  V30 20 C -7.8755 -2.9518 0.0 0
M  V30 21 C -9.1862 -2.1843 0.0 0
M  V30 22 C -10.4968 -2.9282 0.0 0
M  V30 END ATOM
M  V30 BEGIN BOND
M  V30 1 1 1 2
M  V30 2 2 1 3 CFG=2
M  V30 3 2 2 4
M  V30 4 1 2 5
M  V30 5 1 3 6
M  V30 6 1 4 7
M  V30 7 1 4 8
M  V30 8 2 5 9
M  V30 9 1 6 10
M  V30 10 1 6 11
M  V30 11 2 7 12
M  V30 12 2 10 13 CFG=2
M  V30 13 1 12 14
M  V30 14 1 13 15
M  V30 15 2 15 16
M  V30 16 1 15 17
M  V30 17 1 16 18
M  V30 18 1 16 19
M  V30 19 2 17 20
M  V30 20 2 18 21
M  V30 21 1 21 22
M  V30 22 1 9 12
M  V30 23 1 20 21
M  V30 END BOND
M  V30 END CTAB
M  END
>  <Molecule Name>
Amitraz

>  <Order (spectra)>
306

>  <NAME>
Amitraz

>  <Molecular Formula>
C19H23N3

>  <Monoisotopic Mass>
293.189197

>  <SMILES>
CC1=CC(=C(C=C1)N=CN(C)C=NC2=C(C=C(C=C2)C)C)C

>  <InChI>
InChI=1S/C19H23N3/c1-14-6-8-18(16(3)10-14)20-12-22(5)13-21-19-9-7-15(2)11-17(19)4/h6-13H,1-5H3

>  <InChIKey>
QXAITBQSYVNQDR-UHFFFAOYSA-N

>  <Kingdom>
Organic compounds

>  <Superclass>
Benzenoids

>  <Class>
Benzene and substituted derivatives

>  <Subclass>
Xylenes

>  <Parent Level 1>
m-Xylenes

>  <Parent Level 2>


>  <Parent Level 3>


>  <cLogP>
3.4928

>  <cLogS>
-4.521

>  <Druglikeness>
1.7182

>  <NP-class probability>
0.13

>  <SmilesFragFp 3>


>  <MS_READY_SMILES>
-

>  <MS_READY_InChI>


>  <QSAR_READY_SMILES>
-

>  <QSAR_READY_InChI>


>  <DTXSID>
-

>  <DTXCID>
-

>  <CASRN>
-

>  <EXPOCAST_MEDIAN_EXPOSURE_PREDICTION_MG/KG-BW/DAY>
-

>  <BIOCONCENTRATION_FACTOR_TEST_PRED>
-

>  <BOILING_POINT_DEGC_TEST_PRED>
-

>  <48HR_DAPHNIA_LC50_MOL/L_TEST_PRED>
-

>  <DENSITY_G/CM^3_TEST_PRED>
-

>  <DEVTOX_TEST_PRED>
-

>  <96HR_FATHEAD_MINNOW_MOL/L_TEST_PRED>
-

>  <FLASH_POINT_DEGC_TEST_PRED>
-

>  <MELTING_POINT_DEGC_TEST_PRED>
-

>  <AMES_MUTAGENICITY_TEST_PRED>
-

>  <ORAL_RAT_LD50_MOL/KG_TEST_PRED>
-

>  <SURFACE_TENSION_DYN/CM_TEST_PRED>
-

>  <THERMAL_CONDUCTIVITY_MW/(M*K)_TEST_PRED>
-

>  <TETRAHYMENA_PYRIFORMIS_IGC50_MOL/L_TEST_PRED>
-

>  <VISCOSITY_CP_CP_TEST_PRED>
-

>  <VAPOR_PRESSURE_MMHG_TEST_PRED>
-

>  <WATER_SOLUBILITY_MOL/L_TEST_PRED>
-

>  <ATMOSPHERIC_HYDROXYLATION_RATE_(AOH)_CM3/MOLECULE*SEC_OPERA_PRED>
-

>  <BIOCONCENTRATION_FACTOR_OPERA_PRED>
-

>  <BIODEGRADATION_HALF_LIFE_DAYS_DAYS_OPERA_PRED>
-

>  <BOILING_POINT_DEGC_OPERA_PRED>
-

>  <HENRYS_LAW_ATM-M3/MOLE_OPERA_PRED>
-

>  <OPERA_KM_DAYS_OPERA_PRED>
-

>  <OCTANOL_AIR_PARTITION_COEFF_LOGKOA_OPERA_PRED>
-

>  <SOIL_ADSORPTION_COEFFICIENT_KOC_L/KG_OPERA_PRED>
-

>  <OCTANOL_WATER_PARTITION_LOGP_OPERA_PRED>
-

>  <MELTING_POINT_DEGC_OPERA_PRED>
-

>  <VAPOR_PRESSURE_MMHG_OPERA_PRED>
-

>  <WATER_SOLUBILITY_MOL/L_OPERA_PRED>
-

>  <Shape Index>
0.68182

>  <Molecular Flexibility>
0.36962

>  <Molecular Complexity>
0.66348

>  <Electronegative Atoms>
3

>  <Stereo Centers>
0

>  <Rotatable Bonds>
2

>  <Rings Closures>
2

>  <Aromatic Rings>
2

>  <Aromatic Atoms>
12

>  <Amides>
0

>  <Amines>
0

>  <Aromatic Nitrogens>
0

>  <Shape Index 2>
0.68182

>  <Molecular Flexibility 2>
0.36962

>  <Molecular Complexity 2>
0.66348

>  <Non-C/H Atoms>
3

>  <Electronegative Atoms 2>
3

>  <Stereo Centers 2>
0

>  <Rotatable Bonds 2>
2

>  <Rings Closures 2>
2

>  <Aromatic Rings 2>
2

>  <Aromatic Atoms 2>
12

>  <sp3-Atoms>
5

>  <Amides 2>
0

>  <Amines 2>
0

>  <Aromatic Nitrogens 2>
0

>  <Basic Nitrogens>
0

$$$$
Tebufenpyrad
Actelion Java MolfileCreator 2.0

  0  0  0  0  0  0              0 V3000
M  V30 BEGIN CTAB
M  V30 COUNTS 23 24 0 0 0
M  V30 BEGIN ATOM
M  V30 1 Cl 0.0 0.0 0.0 0
M  V30 2 C -0.3185 -1.4512 0.0 0
M  V30 3 C -1.699 -2.053 0.0 0
M  V30 4 C 0.6725 -2.5485 0.0 0
M  V30 5 N -1.5574 -3.5278 0.0 0
M  V30 6 C -3.0087 -1.2978 0.0 0
M  V30 7 N -0.0825 -3.8346 0.0 0
M  V30 8 C 2.1474 -2.3833 0.0 0
M  V30 9 C -2.6783 -4.519 0.0 0
M  V30 10 O -3.0205 0.2123 0.0 0
M  V30 11 N -4.3184 -2.0412 0.0 0
M  V30 12 C 2.7491 -1.0029 0.0 0
M  V30 13 C -5.6281 -1.286 0.0 0
M  V30 14 C -6.9377 -2.0294 0.0 0
M  V30 15 C -8.2474 -1.2742 0.0 0
M  V30 16 C -6.9495 -3.516 0.0 0
M  V30 17 C -9.5571 -2.0058 0.0 0
M  V30 18 C -8.2592 -4.2594 0.0 0
M  V30 19 C -9.5689 -3.4924 0.0 0
M  V30 20 C -10.8786 -4.2358 0.0 0
M  V30 21 C -10.1353 -5.5219 0.0 0
M  V30 22 C -12.1883 -4.9791 0.0 0
M  V30 23 C -11.6337 -2.9261 0.0 0
M  V30 END ATOM
M  V30 BEGIN BOND
M  V30 1 1 1 2
M  V30 2 2 2 3
M  V30 3 1 2 4
M  V30 4 1 3 5
M  V30 5 1 3 6
M  V30 6 2 4 7
M  V30 7 1 4 8
M  V30 8 1 5 9
M  V30 9 2 6 10
M  V30 10 1 6 11
M  V30 11 1 8 12
M  V30 12 1 11 13
M  V30 13 1 13 14
M  V30 14 2 14 15
M  V30 15 1 14 16
M  V30 16 1 15 17
M  V30 17 2 16 18
M  V30 18 2 17 19
M  V30 19 1 19 20
M  V30 20 1 20 21
M  V30 21 1 20 22
M  V30 22 1 20 23
M  V30 23 1 5 7
M  V30 24 1 18 19
M  V30 END BOND
M  V30 END CTAB
M  END
>  <Molecule Name>
Tebufenpyrad

>  <Order (spectra)>
307

>  <NAME>
Tebufenpyrad

>  <Molecular Formula>
C18H24N3OCl

>  <Monoisotopic Mass>
333.160789

>  <SMILES>
CCC1=NN(C)C(C(=O)NCC2=CC=C(C=C2)C(C)(C)C)=C1Cl

>  <InChI>
InChI=1S/C18H24ClN3O/c1-6-14-15(19)16(22(5)21-14)17(23)20-11-12-7-9-13(10-8-12)18(2,3)4/h7-10H,6,11H2,1-5H3,(H,20,23)

>  <InChIKey>
ZZYSLNWGKKDOML-UHFFFAOYSA-N

>  <Kingdom>
Organic compounds

>  <Superclass>
Benzenoids

>  <Class>
Benzene and substituted derivatives

>  <Subclass>
Phenylpropanes

>  <Parent Level 1>
Phenylpropanes

>  <Parent Level 2>


>  <Parent Level 3>


>  <cLogP>
3.6342

>  <cLogS>
-4.158

>  <Druglikeness>
2.1754

>  <NP-class probability>
0

>  <SmilesFragFp 3>


>  <MS_READY_SMILES>
CCC1=NN(C)C(C(=O)NCC2=CC=C(C=C2)C(C)(C)C)=C1Cl

>  <MS_READY_InChI>
InChI=1S/C18H24ClN3O/c1-6-14-15(19)16(22(5)21-14)17(23)20-11-12-7-9-13(10-8-12)18(2,3)4/h7-10H,6,11H2,1-5H3,(H,20,23)

>  <QSAR_READY_SMILES>
CCC1=NN(C)C(C(=O)NCC2=CC=C(C=C2)C(C)(C)C)=C1Cl

>  <QSAR_READY_InChI>
InChI=1S/C18H24ClN3O/c1-6-14-15(19)16(22(5)21-14)17(23)20-11-12-7-9-13(10-8-12)18(2,3)4/h7-10H,6,11H2,1-5H3,(H,20,23)

>  <DTXSID>
DTXSID0034223

>  <DTXCID>
DTXCID8014223

>  <CASRN>
119168-77-3

>  <EXPOCAST_MEDIAN_EXPOSURE_PREDICTION_MG/KG-BW/DAY>
2.37E-07

>  <BIOCONCENTRATION_FACTOR_TEST_PRED>
114.288

>  <BOILING_POINT_DEGC_TEST_PRED>
417.657

>  <48HR_DAPHNIA_LC50_MOL/L_TEST_PRED>
2.54E-05

>  <DENSITY_G/CM^3_TEST_PRED>
1.191

>  <DEVTOX_TEST_PRED>
0.522

>  <96HR_FATHEAD_MINNOW_MOL/L_TEST_PRED>
8.32E-07

>  <FLASH_POINT_DEGC_TEST_PRED>
270.393

>  <MELTING_POINT_DEGC_TEST_PRED>
102.149

>  <AMES_MUTAGENICITY_TEST_PRED>
-0.123

>  <ORAL_RAT_LD50_MOL/KG_TEST_PRED>
0.0044978

>  <SURFACE_TENSION_DYN/CM_TEST_PRED>
-

>  <THERMAL_CONDUCTIVITY_MW/(M*K)_TEST_PRED>
-

>  <TETRAHYMENA_PYRIFORMIS_IGC50_MOL/L_TEST_PRED>
-

>  <VISCOSITY_CP_CP_TEST_PRED>
-

>  <VAPOR_PRESSURE_MMHG_TEST_PRED>
6.00E-08

>  <WATER_SOLUBILITY_MOL/L_TEST_PRED>
1.63E-05

>  <ATMOSPHERIC_HYDROXYLATION_RATE_(AOH)_CM3/MOLECULE*SEC_OPERA_PRED>
1.74E-11

>  <BIOCONCENTRATION_FACTOR_OPERA_PRED>
14.1904

>  <BIODEGRADATION_HALF_LIFE_DAYS_DAYS_OPERA_PRED>
3.35154

>  <BOILING_POINT_DEGC_OPERA_PRED>
341.523

>  <HENRYS_LAW_ATM-M3/MOLE_OPERA_PRED>
1.53E-10

>  <OPERA_KM_DAYS_OPERA_PRED>
1.14043

>  <OCTANOL_AIR_PARTITION_COEFF_LOGKOA_OPERA_PRED>
10.7141

>  <SOIL_ADSORPTION_COEFFICIENT_KOC_L/KG_OPERA_PRED>
799.499

>  <OCTANOL_WATER_PARTITION_LOGP_OPERA_PRED>
4.60966

>  <MELTING_POINT_DEGC_OPERA_PRED>
61.635

>  <VAPOR_PRESSURE_MMHG_OPERA_PRED>
9.00E-07

>  <WATER_SOLUBILITY_MOL/L_OPERA_PRED>
7.53E-06

>  <Shape Index>
0.6087

>  <Molecular Flexibility>
0.54692

>  <Molecular Complexity>
0.75973

>  <Electronegative Atoms>
5

>  <Stereo Centers>
0

>  <Rotatable Bonds>
5

>  <Rings Closures>
2

>  <Aromatic Rings>
2

>  <Aromatic Atoms>
11

>  <Amides>
1

>  <Amines>
0

>  <Aromatic Nitrogens>
2

>  <Shape Index 2>
0.6087

>  <Molecular Flexibility 2>
0.54692

>  <Molecular Complexity 2>
0.75973

>  <Non-C/H Atoms>
5

>  <Electronegative Atoms 2>
5

>  <Stereo Centers 2>
0

>  <Rotatable Bonds 2>
5

>  <Rings Closures 2>
2

>  <Aromatic Rings 2>
2

>  <Aromatic Atoms 2>
11

>  <sp3-Atoms>
8

>  <Amides 2>
1

>  <Amines 2>
0

>  <Aromatic Nitrogens 2>
2

>  <Basic Nitrogens>
0

$$$$
Enilconazole
Actelion Java MolfileCreator 2.0

  0  0  0  0  0  0              0 V3000
M  V30 BEGIN CTAB
M  V30 COUNTS 19 20 0 0 0
M  V30 BEGIN ATOM
M  V30 1 Cl 0.0 0.0 0.0 0
M  V30 2 C 1.2921 -0.7468 0.0 0
M  V30 3 C 2.5843 0.0118 0.0 0
M  V30 4 C 1.2803 -2.2405 0.0 0
M  V30 5 C 3.8765 -0.7349 0.0 0
M  V30 6 C 2.5724 1.5292 0.0 0 CFG=1
M  V30 7 C 2.5724 -2.9874 0.0 0
M  V30 8 C 3.8646 -2.2286 0.0 0
M  V30 9 O 1.2566 2.2879 0.0 0
M  V30 10 C 3.8646 2.2879 0.0 0
M  V30 11 Cl 2.5606 -4.4811 0.0 0
M  V30 12 C -0.0592 1.5411 0.0 0
M  V30 13 N 5.1568 1.5411 0.0 0
M  V30 14 C -1.3751 2.2998 0.0 0
M  V30 15 C 5.299 0.0592 0.0 0
M  V30 16 C 6.5201 2.1694 0.0 0
M  V30 17 C -2.691 1.5529 0.0 0
M  V30 18 N 6.7572 -0.237 0.0 0
M  V30 19 C 7.5159 1.0669 0.0 0
M  V30 END ATOM
M  V30 BEGIN BOND
M  V30 1 1 1 2
M  V30 2 2 2 3
M  V30 3 1 2 4
M  V30 4 1 3 5
M  V30 5 1 3 6
M  V30 6 2 4 7
M  V30 7 2 5 8
M  V30 8 1 6 9 CFG=1
M  V30 9 1 6 10
M  V30 10 1 7 11
M  V30 11 1 9 12
M  V30 12 1 10 13
M  V30 13 1 12 14
M  V30 14 1 13 15
M  V30 15 1 13 16
M  V30 16 2 14 17
M  V30 17 2 15 18
M  V30 18 2 16 19
M  V30 19 1 7 8
M  V30 20 1 18 19
M  V30 END BOND
M  V30 BEGIN COLLECTION
M  V30 MDLV30/STERAC1 ATOMS=(1 6)
M  V30 END COLLECTION
M  V30 END CTAB
M  END
>  <Molecule Name>
Enilconazole

>  <Order (spectra)>
311

>  <NAME>
Enilconazole

>  <Molecular Formula>
C14H14N2OCl2

>  <Monoisotopic Mass>
296.048317

>  <SMILES>
ClC1=CC(Cl)=C(C=C1)C(CN1C=CN=C1)OCC=C

>  <InChI>
InChI=1S/C14H14Cl2N2O/c1-2-7-19-14(9-18-6-5-17-10-18)12-4-3-11(15)8-13(12)16/h2-6,8,10,14H,1,7,9H2/t14-/m0/s1

>  <InChIKey>
PZBPKYOVPCNPJY-UHFFFAOYSA-N

>  <Kingdom>
Organic compounds

>  <Superclass>
Benzenoids

>  <Class>
Benzene and substituted derivatives

>  <Subclass>
Benzylethers

>  <Parent Level 1>
Benzylethers

>  <Parent Level 2>


>  <Parent Level 3>


>  <cLogP>
2.8955

>  <cLogS>
-2.795

>  <Druglikeness>
-1.7663

>  <NP-class probability>
0.04

>  <SmilesFragFp 3>


>  <MS_READY_SMILES>
ClC1=CC(Cl)=C(C=C1)C(CN1C=CN=C1)OCC=C

>  <MS_READY_InChI>
InChI=1S/C14H14Cl2N2O/c1-2-7-19-14(9-18-6-5-17-10-18)12-4-3-11(15)8-13(12)16/h2-6,8,10,14H,1,7,9H2/t14-/m0/s1

>  <QSAR_READY_SMILES>
ClC1=CC(Cl)=C(C=C1)C(CN1C=CN=C1)OCC=C

>  <QSAR_READY_InChI>
InChI=1S/C14H14Cl2N2O/c1-2-7-19-14(9-18-6-5-17-10-18)12-4-3-11(15)8-13(12)16/h2-6,8,10,14H,1,7,9H2/t14-/m0/s1

>  <DTXSID>
DTXSID8024151

>  <DTXCID>
DTXCID504151

>  <CASRN>
35554-44-0

>  <EXPOCAST_MEDIAN_EXPOSURE_PREDICTION_MG/KG-BW/DAY>
8.66E-07

>  <BIOCONCENTRATION_FACTOR_TEST_PRED>
168.655

>  <BOILING_POINT_DEGC_TEST_PRED>
344.153

>  <48HR_DAPHNIA_LC50_MOL/L_TEST_PRED>
7.03E-06

>  <DENSITY_G/CM^3_TEST_PRED>
1.267

>  <DEVTOX_TEST_PRED>
0.281

>  <96HR_FATHEAD_MINNOW_MOL/L_TEST_PRED>
6.53E-06

>  <FLASH_POINT_DEGC_TEST_PRED>
218.994

>  <MELTING_POINT_DEGC_TEST_PRED>
53.234

>  <AMES_MUTAGENICITY_TEST_PRED>
0.541

>  <ORAL_RAT_LD50_MOL/KG_TEST_PRED>
0.00289734

>  <SURFACE_TENSION_DYN/CM_TEST_PRED>
46.485

>  <THERMAL_CONDUCTIVITY_MW/(M*K)_TEST_PRED>
134.601

>  <TETRAHYMENA_PYRIFORMIS_IGC50_MOL/L_TEST_PRED>
0.000008531

>  <VISCOSITY_CP_CP_TEST_PRED>
19.6789

>  <VAPOR_PRESSURE_MMHG_TEST_PRED>
3.14E-06

>  <WATER_SOLUBILITY_MOL/L_TEST_PRED>
0.000328095

>  <ATMOSPHERIC_HYDROXYLATION_RATE_(AOH)_CM3/MOLECULE*SEC_OPERA_PRED>
5.75E-11

>  <BIOCONCENTRATION_FACTOR_OPERA_PRED>
35.1016

>  <BIODEGRADATION_HALF_LIFE_DAYS_DAYS_OPERA_PRED>
3.35742

>  <BOILING_POINT_DEGC_OPERA_PRED>
346.993

>  <HENRYS_LAW_ATM-M3/MOLE_OPERA_PRED>
1.32E-05

>  <OPERA_KM_DAYS_OPERA_PRED>
4.21194

>  <OCTANOL_AIR_PARTITION_COEFF_LOGKOA_OPERA_PRED>
9.83676

>  <SOIL_ADSORPTION_COEFFICIENT_KOC_L/KG_OPERA_PRED>
5334.19

>  <OCTANOL_WATER_PARTITION_LOGP_OPERA_PRED>
3.81811

>  <MELTING_POINT_DEGC_OPERA_PRED>
52.7705

>  <VAPOR_PRESSURE_MMHG_OPERA_PRED>
1.20E-06

>  <WATER_SOLUBILITY_MOL/L_OPERA_PRED>
0.000613441

>  <Shape Index>
0.52632

>  <Molecular Flexibility>
0.39381

>  <Molecular Complexity>
0.74264

>  <Electronegative Atoms>
5

>  <Stereo Centers>
1

>  <Rotatable Bonds>
6

>  <Rings Closures>
2

>  <Aromatic Rings>
2

>  <Aromatic Atoms>
11

>  <Amides>
0

>  <Amines>
0

>  <Aromatic Nitrogens>
2

>  <Shape Index 2>
0.52632

>  <Molecular Flexibility 2>
0.39381

>  <Molecular Complexity 2>
0.74264

>  <Non-C/H Atoms>
5

>  <Electronegative Atoms 2>
5

>  <Stereo Centers 2>
1

>  <Rotatable Bonds 2>
6

>  <Rings Closures 2>
2

>  <Aromatic Rings 2>
2

>  <Aromatic Atoms 2>
11

>  <sp3-Atoms>
4

>  <Amides 2>
0

>  <Amines 2>
0

>  <Aromatic Nitrogens 2>
2

>  <Basic Nitrogens>
1

$$$$
Carboxin
Actelion Java MolfileCreator 2.0

  0  0  0  0  0  0              0 V3000
M  V30 BEGIN CTAB
M  V30 COUNTS 16 17 0 0 0
M  V30 BEGIN ATOM
M  V30 1 S 0.0 0.0 0.0 0
M  V30 2 C -0.0118 -1.4902 0.0 0
M  V30 3 C 1.2891 0.7569 0.0 0
M  V30 4 C 1.2773 -2.2353 0.0 0
M  V30 5 C -1.3246 -2.2353 0.0 0
M  V30 6 C 2.5783 0.0236 0.0 0
M  V30 7 O 2.5665 -1.4783 0.0 0
M  V30 8 C 1.2655 -3.7255 0.0 0
M  V30 9 O -1.3364 -3.7255 0.0 0
M  V30 10 N -2.6374 -1.4783 0.0 0
M  V30 11 C -3.9502 -2.2235 0.0 0
M  V30 12 C -5.2631 -1.4665 0.0 0
M  V30 13 C -3.9621 -3.7137 0.0 0
M  V30 14 C -6.5759 -2.1998 0.0 0
M  V30 15 C -5.2749 -4.4588 0.0 0
M  V30 16 C -6.5877 -3.69 0.0 0
M  V30 END ATOM
M  V30 BEGIN BOND
M  V30 1 1 1 2
M  V30 2 1 1 3
M  V30 3 2 2 4
M  V30 4 1 2 5
M  V30 5 1 3 6
M  V30 6 1 4 7
M  V30 7 1 4 8
M  V30 8 2 5 9
M  V30 9 1 5 10
M  V30 10 1 10 11
M  V30 11 2 11 12
M  V30 12 1 11 13
M  V30 13 1 12 14
M  V30 14 2 13 15
M  V30 15 2 14 16
M  V30 16 1 6 7
M  V30 17 1 15 16
M  V30 END BOND
M  V30 END CTAB
M  END
>  <Molecule Name>
Carboxin

>  <Order (spectra)>
315

>  <NAME>
Carboxin

>  <Molecular Formula>
C12H13NO2S

>  <Monoisotopic Mass>
235.066699

>  <SMILES>
CC1=C(SCCO1)C(=O)NC1=CC=CC=C1

>  <InChI>
InChI=1S/C12H13NO2S/c1-9-11(16-8-7-15-9)12(14)13-10-5-3-2-4-6-10/h2-6H,7-8H2,1H3,(H,13,14)

>  <InChIKey>
GYSSRZJIHXQEHQ-UHFFFAOYSA-N

>  <Kingdom>
Organic compounds

>  <Superclass>
Benzenoids

>  <Class>
Benzene and substituted derivatives

>  <Subclass>
Anilides

>  <Parent Level 1>
Anilides

>  <Parent Level 2>


>  <Parent Level 3>


>  <cLogP>
1.725

>  <cLogS>
-3.072

>  <Druglikeness>
0.17663

>  <NP-class probability>
0.12

>  <SmilesFragFp 3>


>  <MS_READY_SMILES>
CC1=C(SCCO1)C(=O)NC1=CC=CC=C1

>  <MS_READY_InChI>
InChI=1S/C12H13NO2S/c1-9-11(16-8-7-15-9)12(14)13-10-5-3-2-4-6-10/h2-6H,7-8H2,1H3,(H,13,14)

>  <QSAR_READY_SMILES>
CC1=C(SCCO1)C(=O)NC1=CC=CC=C1

>  <QSAR_READY_InChI>
InChI=1S/C12H13NO2S/c1-9-11(16-8-7-15-9)12(14)13-10-5-3-2-4-6-10/h2-6H,7-8H2,1H3,(H,13,14)

>  <DTXSID>
DTXSID0023951

>  <DTXCID>
DTXCID003951

>  <CASRN>
5234-68-4

>  <EXPOCAST_MEDIAN_EXPOSURE_PREDICTION_MG/KG-BW/DAY>
1.10E-06

>  <BIOCONCENTRATION_FACTOR_TEST_PRED>
6.71429

>  <BOILING_POINT_DEGC_TEST_PRED>
381.316

>  <48HR_DAPHNIA_LC50_MOL/L_TEST_PRED>
4.73E-05

>  <DENSITY_G/CM^3_TEST_PRED>
1.254

>  <DEVTOX_TEST_PRED>
0.24

>  <96HR_FATHEAD_MINNOW_MOL/L_TEST_PRED>
3.06E-05

>  <FLASH_POINT_DEGC_TEST_PRED>
217.237

>  <MELTING_POINT_DEGC_TEST_PRED>
102.49

>  <AMES_MUTAGENICITY_TEST_PRED>
0.233

>  <ORAL_RAT_LD50_MOL/KG_TEST_PRED>
-

>  <SURFACE_TENSION_DYN/CM_TEST_PRED>
-

>  <THERMAL_CONDUCTIVITY_MW/(M*K)_TEST_PRED>
144.359

>  <TETRAHYMENA_PYRIFORMIS_IGC50_MOL/L_TEST_PRED>
-

>  <VISCOSITY_CP_CP_TEST_PRED>
57.4116

>  <VAPOR_PRESSURE_MMHG_TEST_PRED>
1.07E-07

>  <WATER_SOLUBILITY_MOL/L_TEST_PRED>
0.000304789

>  <ATMOSPHERIC_HYDROXYLATION_RATE_(AOH)_CM3/MOLECULE*SEC_OPERA_PRED>
1.80E-11

>  <BIOCONCENTRATION_FACTOR_OPERA_PRED>
8.05338

>  <BIODEGRADATION_HALF_LIFE_DAYS_DAYS_OPERA_PRED>
3.165

>  <BOILING_POINT_DEGC_OPERA_PRED>
315.742

>  <HENRYS_LAW_ATM-M3/MOLE_OPERA_PRED>
3.06E-08

>  <OPERA_KM_DAYS_OPERA_PRED>
0.103105

>  <OCTANOL_AIR_PARTITION_COEFF_LOGKOA_OPERA_PRED>
10.6391

>  <SOIL_ADSORPTION_COEFFICIENT_KOC_L/KG_OPERA_PRED>
256.564

>  <OCTANOL_WATER_PARTITION_LOGP_OPERA_PRED>
2.14048

>  <MELTING_POINT_DEGC_OPERA_PRED>
91.5922

>  <VAPOR_PRESSURE_MMHG_OPERA_PRED>
1.50E-07

>  <WATER_SOLUBILITY_MOL/L_OPERA_PRED>
0.000698

>  <Shape Index>
0.625

>  <Molecular Flexibility>
0.46796

>  <Molecular Complexity>
0.63962

>  <Electronegative Atoms>
4

>  <Stereo Centers>
0

>  <Rotatable Bonds>
2

>  <Rings Closures>
2

>  <Aromatic Rings>
1

>  <Aromatic Atoms>
6

>  <Amides>
1

>  <Amines>
0

>  <Aromatic Nitrogens>
0

>  <Shape Index 2>
0.625

>  <Molecular Flexibility 2>
0.46796

>  <Molecular Complexity 2>
0.63962

>  <Non-C/H Atoms>
4

>  <Electronegative Atoms 2>
4

>  <Stereo Centers 2>
0

>  <Rotatable Bonds 2>
2

>  <Rings Closures 2>
2

>  <Aromatic Rings 2>
1

>  <Aromatic Atoms 2>
6

>  <sp3-Atoms>
5

>  <Amides 2>
1

>  <Amines 2>
0

>  <Aromatic Nitrogens 2>
0

>  <Basic Nitrogens>
0

$$$$
Flufenacet
Actelion Java MolfileCreator 2.0

  0  0  0  0  0  0              0 V3000
M  V30 BEGIN CTAB
M  V30 COUNTS 24 25 0 0 0
M  V30 BEGIN ATOM
M  V30 1 S 0.0 0.0 0.0 0
M  V30 2 C -1.3843 -0.6034 0.0 0
M  V30 3 C 0.9938 -1.1003 0.0 0
M  V30 4 O -2.6976 0.1538 0.0 0
M  V30 5 N -1.2423 -2.0824 0.0 0
M  V30 6 N 0.2366 -2.39 0.0 0
M  V30 7 C 2.4728 -0.9347 0.0 0
M  V30 8 C -4.0109 -0.5797 0.0 0
M  V30 9 F 2.3072 0.5679 0.0 0
M  V30 10 F 3.9518 -0.769 0.0 0
M  V30 11 F 2.6148 -2.4136 0.0 0
M  V30 12 C -5.3243 0.1774 0.0 0
M  V30 13 O -5.3361 1.6919 0.0 0
M  V30 14 N -6.6376 -0.556 0.0 0
M  V30 15 C -6.6494 -2.0469 0.0 0
M  V30 16 C -7.9509 0.2011 0.0 0
M  V30 17 C -7.9628 -2.7804 0.0 0
M  V30 18 C -5.3598 -2.7804 0.0 0
M  V30 19 C -7.9628 1.7156 0.0 0
M  V30 20 C -9.2643 -0.5324 0.0 0
M  V30 21 C -7.9746 -4.2712 0.0 0
M  V30 22 C -5.3716 -4.2712 0.0 0
M  V30 23 C -6.6849 -5.0166 0.0 0
M  V30 24 F -6.6968 -6.5075 0.0 0
M  V30 END ATOM
M  V30 BEGIN BOND
M  V30 1 1 1 2
M  V30 2 1 1 3
M  V30 3 1 2 4
M  V30 4 2 2 5
M  V30 5 2 3 6
M  V30 6 1 3 7
M  V30 7 1 4 8
M  V30 8 1 7 9
M  V30 9 1 7 10
M  V30 10 1 7 11
M  V30 11 1 8 12
M  V30 12 2 12 13
M  V30 13 1 12 14
M  V30 14 1 14 15
M  V30 15 1 14 16
M  V30 16 2 15 17
M  V30 17 1 15 18
M  V30 18 1 16 19
M  V30 19 1 16 20
M  V30 20 1 17 21
M  V30 21 2 18 22
M  V30 22 2 21 23
M  V30 23 1 23 24
M  V30 24 1 5 6
M  V30 25 1 22 23
M  V30 END BOND
M  V30 END CTAB
M  END
>  <Molecule Name>
Flufenacet

>  <Order (spectra)>
319

>  <NAME>
Flufenacet

>  <Molecular Formula>
C14H13N3O2F4S

>  <Monoisotopic Mass>
363.066459

>  <SMILES>
CC(C)N(C(=O)COC1=NN=C(S1)C(F)(F)F)C1=CC=C(F)C=C1

>  <InChI>
InChI=1S/C14H13F4N3O2S/c1-8(2)21(10-5-3-9(15)4-6-10)11(22)7-23-13-20-19-12(24-13)14(16,17)18/h3-6,8H,7H2,1-2H3

>  <InChIKey>
IANUJLZYFUDJIH-UHFFFAOYSA-N

>  <Kingdom>
Organic compounds

>  <Superclass>
Benzenoids

>  <Class>
Benzene and substituted derivatives

>  <Subclass>
Anilides

>  <Parent Level 1>
Anilides

>  <Parent Level 2>


>  <Parent Level 3>


>  <cLogP>
3.1891

>  <cLogS>
-3.861

>  <Druglikeness>
-10.905

>  <NP-class probability>
0.01

>  <SmilesFragFp 3>


>  <MS_READY_SMILES>
CC(C)N(C(=O)COC1=NN=C(S1)C(F)(F)F)C1=CC=C(F)C=C1

>  <MS_READY_InChI>
InChI=1S/C14H13F4N3O2S/c1-8(2)21(10-5-3-9(15)4-6-10)11(22)7-23-13-20-19-12(24-13)14(16,17)18/h3-6,8H,7H2,1-2H3

>  <QSAR_READY_SMILES>
CC(C)N(C(=O)COC1=NN=C(S1)C(F)(F)F)C1=CC=C(F)C=C1

>  <QSAR_READY_InChI>
InChI=1S/C14H13F4N3O2S/c1-8(2)21(10-5-3-9(15)4-6-10)11(22)7-23-13-20-19-12(24-13)14(16,17)18/h3-6,8H,7H2,1-2H3

>  <DTXSID>
DTXSID2032552

>  <DTXCID>
DTXCID0012552

>  <CASRN>
142459-58-3

>  <EXPOCAST_MEDIAN_EXPOSURE_PREDICTION_MG/KG-BW/DAY>
2.50E-07

>  <BIOCONCENTRATION_FACTOR_TEST_PRED>
51.9996

>  <BOILING_POINT_DEGC_TEST_PRED>
362.085

>  <48HR_DAPHNIA_LC50_MOL/L_TEST_PRED>
1.18E-05

>  <DENSITY_G/CM^3_TEST_PRED>
1.491

>  <DEVTOX_TEST_PRED>
0.742

>  <96HR_FATHEAD_MINNOW_MOL/L_TEST_PRED>
-

>  <FLASH_POINT_DEGC_TEST_PRED>
222.939

>  <MELTING_POINT_DEGC_TEST_PRED>
74.634

>  <AMES_MUTAGENICITY_TEST_PRED>
0.556

>  <ORAL_RAT_LD50_MOL/KG_TEST_PRED>
0.00399945

>  <SURFACE_TENSION_DYN/CM_TEST_PRED>
-

>  <THERMAL_CONDUCTIVITY_MW/(M*K)_TEST_PRED>
-

>  <TETRAHYMENA_PYRIFORMIS_IGC50_MOL/L_TEST_PRED>
-

>  <VISCOSITY_CP_CP_TEST_PRED>
-

>  <VAPOR_PRESSURE_MMHG_TEST_PRED>
1.51E-07

>  <WATER_SOLUBILITY_MOL/L_TEST_PRED>
3.64E-05

>  <ATMOSPHERIC_HYDROXYLATION_RATE_(AOH)_CM3/MOLECULE*SEC_OPERA_PRED>
1.39E-11

>  <BIOCONCENTRATION_FACTOR_OPERA_PRED>
10.9572

>  <BIODEGRADATION_HALF_LIFE_DAYS_DAYS_OPERA_PRED>
3.54132

>  <BOILING_POINT_DEGC_OPERA_PRED>
350.458

>  <HENRYS_LAW_ATM-M3/MOLE_OPERA_PRED>
8.13E-09

>  <OPERA_KM_DAYS_OPERA_PRED>
0.528039

>  <OCTANOL_AIR_PARTITION_COEFF_LOGKOA_OPERA_PRED>
9.29082

>  <SOIL_ADSORPTION_COEFFICIENT_KOC_L/KG_OPERA_PRED>
1766.01

>  <OCTANOL_WATER_PARTITION_LOGP_OPERA_PRED>
3.19999

>  <MELTING_POINT_DEGC_OPERA_PRED>
76.0423

>  <VAPOR_PRESSURE_MMHG_OPERA_PRED>
6.76E-07

>  <WATER_SOLUBILITY_MOL/L_OPERA_PRED>
0.000153939

>  <Shape Index>
0.58333

>  <Molecular Flexibility>
0.53718

>  <Molecular Complexity>
0.70075

>  <Electronegative Atoms>
10

>  <Stereo Centers>
0

>  <Rotatable Bonds>
6

>  <Rings Closures>
2

>  <Aromatic Rings>
2

>  <Aromatic Atoms>
11

>  <Amides>
1

>  <Amines>
0

>  <Aromatic Nitrogens>
2

>  <Shape Index 2>
0.58333

>  <Molecular Flexibility 2>
0.53718

>  <Molecular Complexity 2>
0.70075

>  <Non-C/H Atoms>
10

>  <Electronegative Atoms 2>
10

>  <Stereo Centers 2>
0

>  <Rotatable Bonds 2>
6

>  <Rings Closures 2>
2

>  <Aromatic Rings 2>
2

>  <Aromatic Atoms 2>
11

>  <sp3-Atoms>
6

>  <Amides 2>
1

>  <Amines 2>
0

>  <Aromatic Nitrogens 2>
2

>  <Basic Nitrogens>
0

$$$$
Propargite
Actelion Java MolfileCreator 2.0

  0  0  0  0  0  0              0 V3000
M  V30 BEGIN CTAB
M  V30 COUNTS 24 25 0 0 0
M  V30 BEGIN ATOM
M  V30 1 S 0.0 0.0 0.0 0
M  V30 2 O -0.0118 -1.4962 0.0 0
M  V30 3 O 1.2943 0.7599 0.0 0
M  V30 4 O -1.3181 0.7599 0.0 0
M  V30 5 C 2.5887 0.0237 0.0 0
M  V30 6 C -2.6362 0.0237 0.0 0
M  V30 7 C 2.5768 -1.4724 0.0 0
M  V30 8 C 3.883 0.7837 0.0 0
M  V30 9 C -2.648 -1.4724 0.0 0
M  V30 10 O 1.2587 -2.2087 0.0 0
M  V30 11 C 3.8712 -2.2087 0.0 0
M  V30 12 C 5.1774 0.0474 0.0 0
M  V30 13 C -2.6599 -2.9687 0.0 0
M  V30 14 C 1.2468 -3.7049 0.0 0
M  V30 15 C 5.1655 -1.4487 0.0 0
M  V30 16 C -0.0712 -4.4411 0.0 0
M  V30 17 C 2.5412 -4.453 0.0 0
M  V30 18 C -0.0831 -5.9374 0.0 0
M  V30 19 C 2.5293 -5.9492 0.0 0
M  V30 20 C 1.2112 -6.6855 0.0 0
M  V30 21 C 1.1993 -8.1817 0.0 0
M  V30 22 C 2.6955 -8.1698 0.0 0
M  V30 23 C 1.1874 -9.678 0.0 0
M  V30 24 C -0.3206 -8.1698 0.0 0
M  V30 END ATOM
M  V30 BEGIN BOND
M  V30 1 2 1 2
M  V30 2 1 1 3
M  V30 3 1 1 4
M  V30 4 1 3 5
M  V30 5 1 4 6
M  V30 6 1 5 7
M  V30 7 1 5 8
M  V30 8 1 6 9
M  V30 9 1 7 10
M  V30 10 1 7 11
M  V30 11 1 8 12
M  V30 12 3 9 13
M  V30 13 1 10 14
M  V30 14 1 11 15
M  V30 15 2 14 16
M  V30 16 1 14 17
M  V30 17 1 16 18
M  V30 18 2 17 19
M  V30 19 2 18 20
M  V30 20 1 20 21
M  V30 21 1 21 22
M  V30 22 1 21 23
M  V30 23 1 21 24
M  V30 24 1 12 15
M  V30 25 1 19 20
M  V30 END BOND
M  V30 END CTAB
M  END
>  <Molecule Name>
Propargite

>  <Order (spectra)>
324

>  <NAME>
Propargite

>  <Molecular Formula>
C19H26O4S

>  <Monoisotopic Mass>
350.15518

>  <SMILES>
CC(C)(C)C1=CC=C(OC2CCCCC2OS(=O)OCC#C)C=C1

>  <InChI>
InChI=1S/C19H28O4S/c1-5-14-21-24(20)23-18-9-7-6-8-17(18)22-16-12-10-15(11-13-16)19(2,3)4/h1,10-13,17-18H,6-9,14,24H2,2-4H3

>  <InChIKey>
ZYHMJXZULPZUED-UHFFFAOYSA-N

>  <Kingdom>
Organic compounds

>  <Superclass>
Benzenoids

>  <Class>
Benzene and substituted derivatives

>  <Subclass>
Phenylpropanes

>  <Parent Level 1>
Phenylpropanes

>  <Parent Level 2>


>  <Parent Level 3>


>  <cLogP>
4.0301

>  <cLogS>
-6.461

>  <Druglikeness>
-8.8791

>  <NP-class probability>
0.4

>  <SmilesFragFp 3>


>  <MS_READY_SMILES>
CC(C)(C)C1=CC=C(OC2CCCCC2OS(=O)OCC#C)C=C1

>  <MS_READY_InChI>
InChI=1S/C19H28O4S/c1-5-14-21-24(20)23-18-9-7-6-8-17(18)22-16-12-10-15(11-13-16)19(2,3)4/h1,10-13,17-18H,6-9,14,24H2,2-4H3

>  <QSAR_READY_SMILES>
CC(C)(C)C1=CC=C(OC2CCCCC2OS(=O)OCC#C)C=C1

>  <QSAR_READY_InChI>
InChI=1S/C19H28O4S/c1-5-14-21-24(20)23-18-9-7-6-8-17(18)22-16-12-10-15(11-13-16)19(2,3)4/h1,10-13,17-18H,6-9,14,24H2,2-4H3

>  <DTXSID>
DTXSID4024276

>  <DTXCID>
DTXCID304276

>  <CASRN>
2312-35-8

>  <EXPOCAST_MEDIAN_EXPOSURE_PREDICTION_MG/KG-BW/DAY>
9.31E-08

>  <BIOCONCENTRATION_FACTOR_TEST_PRED>
-

>  <BOILING_POINT_DEGC_TEST_PRED>
325.241

>  <48HR_DAPHNIA_LC50_MOL/L_TEST_PRED>
-

>  <DENSITY_G/CM^3_TEST_PRED>
1.156

>  <DEVTOX_TEST_PRED>
0.793

>  <96HR_FATHEAD_MINNOW_MOL/L_TEST_PRED>
1.50E-06

>  <FLASH_POINT_DEGC_TEST_PRED>
226.232

>  <MELTING_POINT_DEGC_TEST_PRED>
23.328

>  <AMES_MUTAGENICITY_TEST_PRED>
-

>  <ORAL_RAT_LD50_MOL/KG_TEST_PRED>
0.011885

>  <SURFACE_TENSION_DYN/CM_TEST_PRED>
-

>  <THERMAL_CONDUCTIVITY_MW/(M*K)_TEST_PRED>
-

>  <TETRAHYMENA_PYRIFORMIS_IGC50_MOL/L_TEST_PRED>
-

>  <VISCOSITY_CP_CP_TEST_PRED>
-

>  <VAPOR_PRESSURE_MMHG_TEST_PRED>
1.80E-07

>  <WATER_SOLUBILITY_MOL/L_TEST_PRED>
2.71E-05

>  <ATMOSPHERIC_HYDROXYLATION_RATE_(AOH)_CM3/MOLECULE*SEC_OPERA_PRED>
2.94E-11

>  <BIOCONCENTRATION_FACTOR_OPERA_PRED>
10.8798

>  <BIODEGRADATION_HALF_LIFE_DAYS_DAYS_OPERA_PRED>
5.67208

>  <BOILING_POINT_DEGC_OPERA_PRED>
362.007

>  <HENRYS_LAW_ATM-M3/MOLE_OPERA_PRED>
9.44E-06

>  <OPERA_KM_DAYS_OPERA_PRED>
0.567786

>  <OCTANOL_AIR_PARTITION_COEFF_LOGKOA_OPERA_PRED>
10.6946

>  <SOIL_ADSORPTION_COEFFICIENT_KOC_L/KG_OPERA_PRED>
3973.9

>  <OCTANOL_WATER_PARTITION_LOGP_OPERA_PRED>
4.99861

>  <MELTING_POINT_DEGC_OPERA_PRED>
198.998

>  <VAPOR_PRESSURE_MMHG_OPERA_PRED>
3.01E-07

>  <WATER_SOLUBILITY_MOL/L_OPERA_PRED>
1.08E-06

>  <Shape Index>
0.625

>  <Molecular Flexibility>
0.57582

>  <Molecular Complexity>
0.69646

>  <Electronegative Atoms>
5

>  <Stereo Centers>
3

>  <Rotatable Bonds>
7

>  <Rings Closures>
2

>  <Aromatic Rings>
1

>  <Aromatic Atoms>
6

>  <Amides>
0

>  <Amines>
0

>  <Aromatic Nitrogens>
0

>  <Shape Index 2>
0.625

>  <Molecular Flexibility 2>
0.57582

>  <Molecular Complexity 2>
0.69646

>  <Non-C/H Atoms>
5

>  <Electronegative Atoms 2>
5

>  <Stereo Centers 2>
3

>  <Rotatable Bonds 2>
7

>  <Rings Closures 2>
2

>  <Aromatic Rings 2>
1

>  <Aromatic Atoms 2>
6

>  <sp3-Atoms>
15

>  <Amides 2>
0

>  <Amines 2>
0

>  <Aromatic Nitrogens 2>
0

>  <Basic Nitrogens>
0

$$$$
Pyridaben
Actelion Java MolfileCreator 2.0

  0  0  0  0  0  0              0 V3000
M  V30 BEGIN CTAB
M  V30 COUNTS 24 25 0 0 0
M  V30 BEGIN ATOM
M  V30 1 Cl 0.0 0.0 0.0 0
M  V30 2 C -0.0117 1.5084 0.0 0
M  V30 3 C 1.2727 2.2627 0.0 0
M  V30 4 C -1.3199 2.2627 0.0 0
M  V30 5 O 2.5573 1.5202 0.0 0
M  V30 6 N 1.2609 3.7711 0.0 0
M  V30 7 S -2.628 1.5202 0.0 0
M  V30 8 C -1.3317 3.7711 0.0 0
M  V30 9 N -0.0471 4.5254 0.0 0
M  V30 10 C 2.5455 4.5254 0.0 0
M  V30 11 C -3.9361 2.2745 0.0 0
M  V30 12 C 1.7913 5.8335 0.0 0
M  V30 13 C 3.8301 5.2796 0.0 0
M  V30 14 C 3.288 3.2408 0.0 0
M  V30 15 C -5.2443 1.532 0.0 0
M  V30 16 C -6.5524 2.2862 0.0 0
M  V30 17 C -5.256 0.0471 0.0 0
M  V30 18 C -7.8605 1.5556 0.0 0
M  V30 19 C -6.5642 -0.6953 0.0 0
M  V30 20 C -7.8723 0.0707 0.0 0
M  V30 21 C -9.1804 -0.6717 0.0 0
M  V30 22 C -8.438 -1.9563 0.0 0
M  V30 23 C -10.4886 -1.4141 0.0 0
M  V30 24 C -9.9347 0.6363 0.0 0
M  V30 END ATOM
M  V30 BEGIN BOND
M  V30 1 1 1 2
M  V30 2 1 2 3
M  V30 3 2 2 4
M  V30 4 2 3 5
M  V30 5 1 3 6
M  V30 6 1 4 7
M  V30 7 1 4 8
M  V30 8 1 6 9
M  V30 9 1 6 10
M  V30 10 1 7 11
M  V30 11 1 10 12
M  V30 12 1 10 13
M  V30 13 1 10 14
M  V30 14 1 11 15
M  V30 15 2 15 16
M  V30 16 1 15 17
M  V30 17 1 16 18
M  V30 18 2 17 19
M  V30 19 2 18 20
M  V30 20 1 20 21
M  V30 21 1 21 22
M  V30 22 1 21 23
M  V30 23 1 21 24
M  V30 24 2 8 9
M  V30 25 1 19 20
M  V30 END BOND
M  V30 END CTAB
M  END
>  <Molecule Name>
Pyridaben

>  <Order (spectra)>
328

>  <NAME>
Pyridaben

>  <Molecular Formula>
C19H25N2OClS

>  <Monoisotopic Mass>
364.13761

>  <SMILES>
CC(C)(C)N1N=CC(SCC2=CC=C(C=C2)C(C)(C)C)=C(Cl)C1=O

>  <InChI>
InChI=1S/C19H25ClN2OS/c1-18(2,3)14-9-7-13(8-10-14)12-24-15-11-21-22(19(4,5)6)17(23)16(15)20/h7-11H,12H2,1-6H3

>  <InChIKey>
DWFZBUWUXWZWKD-UHFFFAOYSA-N

>  <Kingdom>
Organic compounds

>  <Superclass>
Benzenoids

>  <Class>
Benzene and substituted derivatives

>  <Subclass>
Phenylpropanes

>  <Parent Level 1>
Phenylpropanes

>  <Parent Level 2>


>  <Parent Level 3>


>  <cLogP>
4.6449

>  <cLogS>
-5.54

>  <Druglikeness>
1.7321

>  <NP-class probability>
0

>  <SmilesFragFp 3>


>  <MS_READY_SMILES>
CC(C)(C)N1N=CC(SCC2=CC=C(C=C2)C(C)(C)C)=C(Cl)C1=O

>  <MS_READY_InChI>
InChI=1S/C19H25ClN2OS/c1-18(2,3)14-9-7-13(8-10-14)12-24-15-11-21-22(19(4,5)6)17(23)16(15)20/h7-11H,12H2,1-6H3

>  <QSAR_READY_SMILES>
CC(C)(C)N1N=CC(SCC2=CC=C(C=C2)C(C)(C)C)=C(Cl)C1=O

>  <QSAR_READY_InChI>
InChI=1S/C19H25ClN2OS/c1-18(2,3)14-9-7-13(8-10-14)12-24-15-11-21-22(19(4,5)6)17(23)16(15)20/h7-11H,12H2,1-6H3

>  <DTXSID>
DTXSID5032573

>  <DTXCID>
DTXCID3012573

>  <CASRN>
96489-71-3

>  <EXPOCAST_MEDIAN_EXPOSURE_PREDICTION_MG/KG-BW/DAY>
2.49E-07

>  <BIOCONCENTRATION_FACTOR_TEST_PRED>
-

>  <BOILING_POINT_DEGC_TEST_PRED>
421.721

>  <48HR_DAPHNIA_LC50_MOL/L_TEST_PRED>
6.25E-07

>  <DENSITY_G/CM^3_TEST_PRED>
1.215

>  <DEVTOX_TEST_PRED>
0.152

>  <96HR_FATHEAD_MINNOW_MOL/L_TEST_PRED>
3.85E-08

>  <FLASH_POINT_DEGC_TEST_PRED>
191.181

>  <MELTING_POINT_DEGC_TEST_PRED>
148.682

>  <AMES_MUTAGENICITY_TEST_PRED>
0.255

>  <ORAL_RAT_LD50_MOL/KG_TEST_PRED>
0.0015417

>  <SURFACE_TENSION_DYN/CM_TEST_PRED>
-

>  <THERMAL_CONDUCTIVITY_MW/(M*K)_TEST_PRED>
-

>  <TETRAHYMENA_PYRIFORMIS_IGC50_MOL/L_TEST_PRED>
-

>  <VISCOSITY_CP_CP_TEST_PRED>
-

>  <VAPOR_PRESSURE_MMHG_TEST_PRED>
8.67E-08

>  <WATER_SOLUBILITY_MOL/L_TEST_PRED>
5.85E-07

>  <ATMOSPHERIC_HYDROXYLATION_RATE_(AOH)_CM3/MOLECULE*SEC_OPERA_PRED>
2.39E-11

>  <BIOCONCENTRATION_FACTOR_OPERA_PRED>
599.033

>  <BIODEGRADATION_HALF_LIFE_DAYS_DAYS_OPERA_PRED>
13.0229

>  <BOILING_POINT_DEGC_OPERA_PRED>
364.626

>  <HENRYS_LAW_ATM-M3/MOLE_OPERA_PRED>
5.25E-08

>  <OPERA_KM_DAYS_OPERA_PRED>
0.638193

>  <OCTANOL_AIR_PARTITION_COEFF_LOGKOA_OPERA_PRED>
10.3163

>  <SOIL_ADSORPTION_COEFFICIENT_KOC_L/KG_OPERA_PRED>
2224.03

>  <OCTANOL_WATER_PARTITION_LOGP_OPERA_PRED>
6.3671

>  <MELTING_POINT_DEGC_OPERA_PRED>
111.437

>  <VAPOR_PRESSURE_MMHG_OPERA_PRED>
1.18E-06

>  <WATER_SOLUBILITY_MOL/L_OPERA_PRED>
4.47E-08

>  <Shape Index>
0.58333

>  <Molecular Flexibility>
0.64587

>  <Molecular Complexity>
0.74185

>  <Electronegative Atoms>
5

>  <Stereo Centers>
0

>  <Rotatable Bonds>
5

>  <Rings Closures>
2

>  <Aromatic Rings>
1

>  <Aromatic Atoms>
6

>  <Amides>
0

>  <Amines>
0

>  <Aromatic Nitrogens>
0

>  <Shape Index 2>
0.58333

>  <Molecular Flexibility 2>
0.64587

>  <Molecular Complexity 2>
0.74185

>  <Non-C/H Atoms>
5

>  <Electronegative Atoms 2>
5

>  <Stereo Centers 2>
0

>  <Rotatable Bonds 2>
5

>  <Rings Closures 2>
2

>  <Aromatic Rings 2>
1

>  <Aromatic Atoms 2>
6

>  <sp3-Atoms>
10

>  <Amides 2>
0

>  <Amines 2>
0

>  <Aromatic Nitrogens 2>
0

>  <Basic Nitrogens>
0

$$$$
Bitertanol
Actelion Java MolfileCreator 2.0

  0  0  0  0  0  0              0 V3000
M  V30 BEGIN CTAB
M  V30 COUNTS 25 27 0 0 0
M  V30 BEGIN ATOM
M  V30 1 O 0.0 0.0 0.0 0
M  V30 2 C 1.2918 -0.7466 0.0 0
M  V30 3 C -1.3155 -0.7466 0.0 0
M  V30 4 C 1.28 -2.24 0.0 0
M  V30 5 C 2.5837 0.0118 0.0 0
M  V30 6 N -1.3274 -2.24 0.0 0
M  V30 7 C -2.6311 0.0118 0.0 0
M  V30 8 C 2.5719 -2.9867 0.0 0
M  V30 9 C 3.8756 -0.7348 0.0 0
M  V30 10 N -2.56 -3.1171 0.0 0
M  V30 11 C -0.1185 -3.1171 0.0 0
M  V30 12 O -2.643 1.5289 0.0 0
M  V30 13 C -3.9467 -0.7348 0.0 0
M  V30 14 C 3.8638 -2.2282 0.0 0
M  V30 15 C -2.1096 -4.5393 0.0 0
M  V30 16 N -0.5926 -4.5393 0.0 0
M  V30 17 C -3.2119 -2.0267 0.0 0
M  V30 18 C -5.2623 -1.4696 0.0 0
M  V30 19 C -4.7053 0.5807 0.0 0
M  V30 20 C 5.1557 -2.9749 0.0 0
M  V30 21 C 5.1438 -4.4682 0.0 0
M  V30 22 C 6.4475 -2.2163 0.0 0
M  V30 23 C 6.4357 -5.2149 0.0 0
M  V30 24 C 7.7394 -2.963 0.0 0
M  V30 25 C 7.7276 -4.4564 0.0 0
M  V30 END ATOM
M  V30 BEGIN BOND
M  V30 1 1 1 2
M  V30 2 1 1 3
M  V30 3 2 2 4
M  V30 4 1 2 5
M  V30 5 1 3 6
M  V30 6 1 3 7
M  V30 7 1 4 8
M  V30 8 2 5 9
M  V30 9 1 6 10
M  V30 10 1 6 11
M  V30 11 1 7 12
M  V30 12 1 7 13
M  V30 13 2 8 14
M  V30 14 2 10 15
M  V30 15 2 11 16
M  V30 16 1 13 17
M  V30 17 1 13 18
M  V30 18 1 13 19
M  V30 19 1 14 20
M  V30 20 2 20 21
M  V30 21 1 20 22
M  V30 22 1 21 23
M  V30 23 2 22 24
M  V30 24 2 23 25
M  V30 25 1 9 14
M  V30 26 1 15 16
M  V30 27 1 24 25
M  V30 END BOND
M  V30 END CTAB
M  END
>  <Molecule Name>
Bitertanol

>  <Order (spectra)>
334

>  <NAME>
Bitertanol

>  <Molecular Formula>
C20H23N3O2

>  <Monoisotopic Mass>
337.179027

>  <SMILES>
CC(C)(C)C(O)C(OC1=CC=C(C=C1)C1=CC=CC=C1)N1C=NC=N1

>  <InChI>
InChI=1S/C20H23N3O2/c1-20(2,3)18(24)19(23-14-21-13-22-23)25-17-11-9-16(10-12-17)15-7-5-4-6-8-15/h4-14,18-19,24H,1-3H3

>  <InChIKey>
VGPIBGGRCVEHQZ-UHFFFAOYSA-N

>  <Kingdom>
Organic compounds

>  <Superclass>
Benzenoids

>  <Class>
Benzene and substituted derivatives

>  <Subclass>
Biphenyls and derivatives

>  <Parent Level 1>
Biphenyls and derivatives

>  <Parent Level 2>


>  <Parent Level 3>


>  <cLogP>
3.7417

>  <cLogS>
-5.587

>  <Druglikeness>
0.091894

>  <NP-class probability>
0.07

>  <SmilesFragFp 3>


>  <MS_READY_SMILES>
CC(C)(C)C(O)C(OC1=CC=C(C=C1)C1=CC=CC=C1)N1C=NC=N1

>  <MS_READY_InChI>
InChI=1S/C20H23N3O2/c1-20(2,3)18(24)19(23-14-21-13-22-23)25-17-11-9-16(10-12-17)15-7-5-4-6-8-15/h4-14,18-19,24H,1-3H3

>  <QSAR_READY_SMILES>
CC(C)(C)C(O)C(OC1=CC=C(C=C1)C1=CC=CC=C1)N1C=NC=N1

>  <QSAR_READY_InChI>
InChI=1S/C20H23N3O2/c1-20(2,3)18(24)19(23-14-21-13-22-23)25-17-11-9-16(10-12-17)15-7-5-4-6-8-15/h4-14,18-19,24H,1-3H3

>  <DTXSID>
DTXSID2037502

>  <DTXCID>
DTXCID0017502

>  <CASRN>
55179-31-2

>  <EXPOCAST_MEDIAN_EXPOSURE_PREDICTION_MG/KG-BW/DAY>
1.22E-07

>  <BIOCONCENTRATION_FACTOR_TEST_PRED>
86.2979

>  <BOILING_POINT_DEGC_TEST_PRED>
388.205

>  <48HR_DAPHNIA_LC50_MOL/L_TEST_PRED>
2.02E-05

>  <DENSITY_G/CM^3_TEST_PRED>
1.198

>  <DEVTOX_TEST_PRED>
0.533

>  <96HR_FATHEAD_MINNOW_MOL/L_TEST_PRED>
5.61E-07

>  <FLASH_POINT_DEGC_TEST_PRED>
272.999

>  <MELTING_POINT_DEGC_TEST_PRED>
132.115

>  <AMES_MUTAGENICITY_TEST_PRED>
0.576

>  <ORAL_RAT_LD50_MOL/KG_TEST_PRED>
0.00539511

>  <SURFACE_TENSION_DYN/CM_TEST_PRED>
-

>  <THERMAL_CONDUCTIVITY_MW/(M*K)_TEST_PRED>
-

>  <TETRAHYMENA_PYRIFORMIS_IGC50_MOL/L_TEST_PRED>
-

>  <VISCOSITY_CP_CP_TEST_PRED>
-

>  <VAPOR_PRESSURE_MMHG_TEST_PRED>
5.20E-09

>  <WATER_SOLUBILITY_MOL/L_TEST_PRED>
3.34E-05

>  <ATMOSPHERIC_HYDROXYLATION_RATE_(AOH)_CM3/MOLECULE*SEC_OPERA_PRED>
2.31E-11

>  <BIOCONCENTRATION_FACTOR_OPERA_PRED>
135.181

>  <BIODEGRADATION_HALF_LIFE_DAYS_DAYS_OPERA_PRED>
3.36207

>  <BOILING_POINT_DEGC_OPERA_PRED>
340.361

>  <HENRYS_LAW_ATM-M3/MOLE_OPERA_PRED>
3.18E-07

>  <OPERA_KM_DAYS_OPERA_PRED>
0.929494

>  <OCTANOL_AIR_PARTITION_COEFF_LOGKOA_OPERA_PRED>
10.6505

>  <SOIL_ADSORPTION_COEFFICIENT_KOC_L/KG_OPERA_PRED>
796.755

>  <OCTANOL_WATER_PARTITION_LOGP_OPERA_PRED>
4.15899

>  <MELTING_POINT_DEGC_OPERA_PRED>
127.07

>  <VAPOR_PRESSURE_MMHG_OPERA_PRED>
2.18E-08

>  <WATER_SOLUBILITY_MOL/L_OPERA_PRED>
1.29E-05

>  <Shape Index>
0.52

>  <Molecular Flexibility>
0.54185

>  <Molecular Complexity>
0.74343

>  <Electronegative Atoms>
5

>  <Stereo Centers>
2

>  <Rotatable Bonds>
6

>  <Rings Closures>
3

>  <Aromatic Rings>
3

>  <Aromatic Atoms>
17

>  <Amides>
0

>  <Amines>
0

>  <Aromatic Nitrogens>
3

>  <Shape Index 2>
0.52

>  <Molecular Flexibility 2>
0.54185

>  <Molecular Complexity 2>
0.74343

>  <Non-C/H Atoms>
5

>  <Electronegative Atoms 2>
5

>  <Stereo Centers 2>
2

>  <Rotatable Bonds 2>
6

>  <Rings Closures 2>
3

>  <Aromatic Rings 2>
3

>  <Aromatic Atoms 2>
17

>  <sp3-Atoms>
8

>  <Amides 2>
0

>  <Amines 2>
0

>  <Aromatic Nitrogens 2>
3

>  <Basic Nitrogens>
0

$$$$
Bromuconazole
Actelion Java MolfileCreator 2.0

  0  0  0  0  0  0              0 V3000
M  V30 BEGIN CTAB
M  V30 COUNTS 20 22 0 0 0
M  V30 BEGIN ATOM
M  V30 1 Br 0.0 0.0 0.0 0
M  V30 2 C 1.4792 -0.142 0.0 0
M  V30 3 C 2.2247 -1.4318 0.0 0
M  V30 4 C 2.4732 0.9821 0.0 0
M  V30 5 O 3.6802 -1.1123 0.0 0
M  V30 6 C 3.834 0.3786 0.0 0
M  V30 7 C 5.0884 -0.426 0.0 0
M  V30 8 C 5.1239 1.1478 0.0 0
M  V30 9 C 4.9937 -1.917 0.0 0
M  V30 10 C 6.4138 0.2721 0.0 0
M  V30 11 N 5.1121 2.6625 0.0 0
M  V30 12 Cl 3.6447 -2.5915 0.0 0
M  V30 13 C 6.2481 -2.7217 0.0 0
M  V30 14 C 7.6681 -0.5325 0.0 0
M  V30 15 N 3.8814 3.5619 0.0 0
M  V30 16 C 6.3191 3.5619 0.0 0
M  V30 17 C 7.5735 -2.0235 0.0 0
M  V30 18 C 4.3311 5.0056 0.0 0
M  V30 19 N 5.8458 5.0056 0.0 0
M  V30 20 Cl 8.8278 -2.8282 0.0 0
M  V30 END ATOM
M  V30 BEGIN BOND
M  V30 1 1 1 2
M  V30 2 1 2 3
M  V30 3 1 2 4
M  V30 4 1 3 5
M  V30 5 1 4 6
M  V30 6 1 6 7
M  V30 7 1 6 8
M  V30 8 2 7 9
M  V30 9 1 7 10
M  V30 10 1 8 11
M  V30 11 1 9 12
M  V30 12 1 9 13
M  V30 13 2 10 14
M  V30 14 1 11 15
M  V30 15 1 11 16
M  V30 16 2 13 17
M  V30 17 2 15 18
M  V30 18 2 16 19
M  V30 19 1 17 20
M  V30 20 1 5 6
M  V30 21 1 14 17
M  V30 22 1 18 19
M  V30 END BOND
M  V30 END CTAB
M  END
>  <Molecule Name>
Bromuconazole

>  <Order (spectra)>
335

>  <NAME>
Bromuconazole

>  <Molecular Formula>
C13H12N3OBrCl2

>  <Monoisotopic Mass>
374.954077

>  <SMILES>
ClC1=CC(Cl)=C(C=C1)C1(CN2C=NC=N2)CC(Br)CO1

>  <InChI>
InChI=1S/C13H12BrCl2N3O/c14-9-4-13(20-5-9,6-19-8-17-7-18-19)11-2-1-10(15)3-12(11)16/h1-3,7-9H,4-6H2

>  <InChIKey>
HJJVPARKXDDIQD-UHFFFAOYSA-N

>  <Kingdom>
Organic compounds

>  <Superclass>
Benzenoids

>  <Class>
Benzene and substituted derivatives

>  <Subclass>
Halobenzenes

>  <Parent Level 1>
Chlorobenzenes

>  <Parent Level 2>
Dichlorobenzenes

>  <Parent Level 3>


>  <cLogP>
2.9598

>  <cLogS>
-4.221

>  <Druglikeness>
-2.617

>  <NP-class probability>
0

>  <SmilesFragFp 3>


>  <MS_READY_SMILES>
ClC1=CC(Cl)=C(C=C1)C1(CN2C=NC=N2)CC(Br)CO1

>  <MS_READY_InChI>
InChI=1S/C13H12BrCl2N3O/c14-9-4-13(20-5-9,6-19-8-17-7-18-19)11-2-1-10(15)3-12(11)16/h1-3,7-9H,4-6H2

>  <QSAR_READY_SMILES>
ClC1=CC(Cl)=C(C=C1)C1(CN2C=NC=N2)CC(Br)CO1

>  <QSAR_READY_InChI>
InChI=1S/C13H12BrCl2N3O/c14-9-4-13(20-5-9,6-19-8-17-7-18-19)11-2-1-10(15)3-12(11)16/h1-3,7-9H,4-6H2

>  <DTXSID>
DTXSID9032531

>  <DTXCID>
DTXCID7012531

>  <CASRN>
116255-48-2

>  <EXPOCAST_MEDIAN_EXPOSURE_PREDICTION_MG/KG-BW/DAY>
3.36E-07

>  <BIOCONCENTRATION_FACTOR_TEST_PRED>
137.404

>  <BOILING_POINT_DEGC_TEST_PRED>
378.272

>  <48HR_DAPHNIA_LC50_MOL/L_TEST_PRED>
0.000016293

>  <DENSITY_G/CM^3_TEST_PRED>
1.595

>  <DEVTOX_TEST_PRED>
0.495

>  <96HR_FATHEAD_MINNOW_MOL/L_TEST_PRED>
3.86E-05

>  <FLASH_POINT_DEGC_TEST_PRED>
229.467

>  <MELTING_POINT_DEGC_TEST_PRED>
100.331

>  <AMES_MUTAGENICITY_TEST_PRED>
0.35

>  <ORAL_RAT_LD50_MOL/KG_TEST_PRED>
-

>  <SURFACE_TENSION_DYN/CM_TEST_PRED>
-

>  <THERMAL_CONDUCTIVITY_MW/(M*K)_TEST_PRED>
-

>  <TETRAHYMENA_PYRIFORMIS_IGC50_MOL/L_TEST_PRED>
-

>  <VISCOSITY_CP_CP_TEST_PRED>
-

>  <VAPOR_PRESSURE_MMHG_TEST_PRED>
8.51E-08

>  <WATER_SOLUBILITY_MOL/L_TEST_PRED>
0.000135831

>  <ATMOSPHERIC_HYDROXYLATION_RATE_(AOH)_CM3/MOLECULE*SEC_OPERA_PRED>
1.66E-11

>  <BIOCONCENTRATION_FACTOR_OPERA_PRED>
71.6689

>  <BIODEGRADATION_HALF_LIFE_DAYS_DAYS_OPERA_PRED>
3.17898

>  <BOILING_POINT_DEGC_OPERA_PRED>
349.627

>  <HENRYS_LAW_ATM-M3/MOLE_OPERA_PRED>
1.01E-05

>  <OPERA_KM_DAYS_OPERA_PRED>
7.20839

>  <OCTANOL_AIR_PARTITION_COEFF_LOGKOA_OPERA_PRED>
9.85377

>  <SOIL_ADSORPTION_COEFFICIENT_KOC_L/KG_OPERA_PRED>
399.638

>  <OCTANOL_WATER_PARTITION_LOGP_OPERA_PRED>
3.24033

>  <MELTING_POINT_DEGC_OPERA_PRED>
83.974

>  <VAPOR_PRESSURE_MMHG_OPERA_PRED>
3.03E-08

>  <WATER_SOLUBILITY_MOL/L_OPERA_PRED>
0.000131926

>  <Shape Index>
0.5

>  <Molecular Flexibility>
0.44465

>  <Molecular Complexity>
0.83479

>  <Electronegative Atoms>
7

>  <Stereo Centers>
2

>  <Rotatable Bonds>
3

>  <Rings Closures>
3

>  <Aromatic Rings>
2

>  <Aromatic Atoms>
11

>  <Amides>
0

>  <Amines>
0

>  <Aromatic Nitrogens>
3

>  <Shape Index 2>
0.5

>  <Molecular Flexibility 2>
0.44465

>  <Molecular Complexity 2>
0.83479

>  <Non-C/H Atoms>
7

>  <Electronegative Atoms 2>
7

>  <Stereo Centers 2>
2

>  <Rotatable Bonds 2>
3

>  <Rings Closures 2>
3

>  <Aromatic Rings 2>
2

>  <Aromatic Atoms 2>
11

>  <sp3-Atoms>
6

>  <Amides 2>
0

>  <Amines 2>
0

>  <Aromatic Nitrogens 2>
3

>  <Basic Nitrogens>
0

$$$$
Cyproconazole
Actelion Java MolfileCreator 2.0

  0  0  0  0  0  0              0 V3000
M  V30 BEGIN CTAB
M  V30 COUNTS 20 22 0 0 0
M  V30 BEGIN ATOM
M  V30 1 Cl 0.0 0.0 0.0 0
M  V30 2 C -0.0118 1.5108 0.0 0
M  V30 3 C 1.2747 2.2662 0.0 0
M  V30 4 C -1.3219 2.278 0.0 0
M  V30 5 C 1.2629 3.777 0.0 0
M  V30 6 C -1.3337 3.7888 0.0 0
M  V30 7 C -0.0472 4.5324 0.0 0
M  V30 8 C -0.059 6.0432 0.0 0
M  V30 9 O 1.2275 5.3114 0.0 0
M  V30 10 C 1.2275 6.7986 0.0 0
M  V30 11 C -1.3691 6.7986 0.0 0
M  V30 12 C 2.514 6.0668 0.0 0
M  V30 13 C 1.2157 8.3094 0.0 0
M  V30 14 N -2.6793 6.0668 0.0 0
M  V30 15 C 3.2458 4.7803 0.0 0
M  V30 16 C 4.0012 6.0786 0.0 0
M  V30 17 N -4.0603 6.6924 0.0 0
M  V30 18 C -2.8445 4.5914 0.0 0
M  V30 19 C -5.0753 5.5947 0.0 0
M  V30 20 N -4.3199 4.2963 0.0 0
M  V30 END ATOM
M  V30 BEGIN BOND
M  V30 1 1 1 2
M  V30 2 2 2 3
M  V30 3 1 2 4
M  V30 4 1 3 5
M  V30 5 2 4 6
M  V30 6 2 5 7
M  V30 7 1 7 8
M  V30 8 1 8 9
M  V30 9 1 8 10
M  V30 10 1 8 11
M  V30 11 1 10 12
M  V30 12 1 10 13
M  V30 13 1 11 14
M  V30 14 1 12 15
M  V30 15 1 12 16
M  V30 16 1 14 17
M  V30 17 1 14 18
M  V30 18 2 17 19
M  V30 19 2 18 20
M  V30 20 1 6 7
M  V30 21 1 15 16
M  V30 22 1 19 20
M  V30 END BOND
M  V30 END CTAB
M  END
>  <Molecule Name>
Cyproconazole

>  <Order (spectra)>
336

>  <NAME>
Cyproconazole

>  <Molecular Formula>
C15H18N3OCl

>  <Monoisotopic Mass>
291.113839

>  <SMILES>
CC(C1CC1)C(O)(CN1C=NC=N1)C1=CC=C(Cl)C=C1

>  <InChI>
InChI=1S/C15H18ClN3O/c1-11(12-2-3-12)15(20,8-19-10-17-9-18-19)13-4-6-14(16)7-5-13/h4-7,9-12,20H,2-3,8H2,1H3

>  <InChIKey>
UFNOUKDBUJZYDE-UHFFFAOYSA-N

>  <Kingdom>
Organic compounds

>  <Superclass>
Benzenoids

>  <Class>
Benzene and substituted derivatives

>  <Subclass>
Phenylpropanes

>  <Parent Level 1>
Phenylpropanes

>  <Parent Level 2>


>  <Parent Level 3>


>  <cLogP>
2.4093

>  <cLogS>
-3.448

>  <Druglikeness>
5.94

>  <NP-class probability>
0.05

>  <SmilesFragFp 3>


>  <MS_READY_SMILES>
CC(C1CC1)C(O)(CN1C=NC=N1)C1=CC=C(Cl)C=C1

>  <MS_READY_InChI>
InChI=1S/C15H18ClN3O/c1-11(12-2-3-12)15(20,8-19-10-17-9-18-19)13-4-6-14(16)7-5-13/h4-7,9-12,20H,2-3,8H2,1H3

>  <QSAR_READY_SMILES>
CC(C1CC1)C(O)(CN1C=NC=N1)C1=CC=C(Cl)C=C1

>  <QSAR_READY_InChI>
InChI=1S/C15H18ClN3O/c1-11(12-2-3-12)15(20,8-19-10-17-9-18-19)13-4-6-14(16)7-5-13/h4-7,9-12,20H,2-3,8H2,1H3

>  <DTXSID>
DTXSID0032601

>  <DTXCID>
DTXCID8012601

>  <CASRN>
94361-06-5

>  <EXPOCAST_MEDIAN_EXPOSURE_PREDICTION_MG/KG-BW/DAY>
2.83E-07

>  <BIOCONCENTRATION_FACTOR_TEST_PRED>
118.85

>  <BOILING_POINT_DEGC_TEST_PRED>
365.398

>  <48HR_DAPHNIA_LC50_MOL/L_TEST_PRED>
7.98E-05

>  <DENSITY_G/CM^3_TEST_PRED>
1.293

>  <DEVTOX_TEST_PRED>
0.584

>  <96HR_FATHEAD_MINNOW_MOL/L_TEST_PRED>
6.19E-07

>  <FLASH_POINT_DEGC_TEST_PRED>
239.329

>  <MELTING_POINT_DEGC_TEST_PRED>
107.833

>  <AMES_MUTAGENICITY_TEST_PRED>
0.664

>  <ORAL_RAT_LD50_MOL/KG_TEST_PRED>
0.00460257

>  <SURFACE_TENSION_DYN/CM_TEST_PRED>
-

>  <THERMAL_CONDUCTIVITY_MW/(M*K)_TEST_PRED>
-

>  <TETRAHYMENA_PYRIFORMIS_IGC50_MOL/L_TEST_PRED>
-

>  <VISCOSITY_CP_CP_TEST_PRED>
-

>  <VAPOR_PRESSURE_MMHG_TEST_PRED>
5.25E-08

>  <WATER_SOLUBILITY_MOL/L_TEST_PRED>
0.000289734

>  <ATMOSPHERIC_HYDROXYLATION_RATE_(AOH)_CM3/MOLECULE*SEC_OPERA_PRED>
1.66E-11

>  <BIOCONCENTRATION_FACTOR_OPERA_PRED>
43.1516

>  <BIODEGRADATION_HALF_LIFE_DAYS_DAYS_OPERA_PRED>
3.44831

>  <BOILING_POINT_DEGC_OPERA_PRED>
321.422

>  <HENRYS_LAW_ATM-M3/MOLE_OPERA_PRED>
5.48E-10

>  <OPERA_KM_DAYS_OPERA_PRED>
3.97091

>  <OCTANOL_AIR_PARTITION_COEFF_LOGKOA_OPERA_PRED>
10.6582

>  <SOIL_ADSORPTION_COEFFICIENT_KOC_L/KG_OPERA_PRED>
182.12

>  <OCTANOL_WATER_PARTITION_LOGP_OPERA_PRED>
2.90198

>  <MELTING_POINT_DEGC_OPERA_PRED>
107.543

>  <VAPOR_PRESSURE_MMHG_OPERA_PRED>
2.61E-07

>  <WATER_SOLUBILITY_MOL/L_OPERA_PRED>
0.000429129

>  <Shape Index>
0.5

>  <Molecular Flexibility>
0.55517

>  <Molecular Complexity>
0.79924

>  <Electronegative Atoms>
5

>  <Stereo Centers>
2

>  <Rotatable Bonds>
5

>  <Rings Closures>
3

>  <Aromatic Rings>
2

>  <Aromatic Atoms>
11

>  <Amides>
0

>  <Amines>
0

>  <Aromatic Nitrogens>
3

>  <Shape Index 2>
0.5

>  <Molecular Flexibility 2>
0.55517

>  <Molecular Complexity 2>
0.79924

>  <Non-C/H Atoms>
5

>  <Electronegative Atoms 2>
5

>  <Stereo Centers 2>
2

>  <Rotatable Bonds 2>
5

>  <Rings Closures 2>
3

>  <Aromatic Rings 2>
2

>  <Aromatic Atoms 2>
11

>  <sp3-Atoms>
8

>  <Amides 2>
0

>  <Amines 2>
0

>  <Aromatic Nitrogens 2>
3

>  <Basic Nitrogens>
0

$$$$
Diclobutrazol
Actelion Java MolfileCreator 2.0

  0  0  0  0  0  0              0 V3000
M  V30 BEGIN CTAB
M  V30 COUNTS 21 22 0 0 0
M  V30 BEGIN ATOM
M  V30 1 Cl 0.0 0.0 0.0 0
M  V30 2 C -0.0118 -1.4896 0.0 0
M  V30 3 C -1.3241 -2.2345 0.0 0
M  V30 4 C 1.2768 -2.2345 0.0 0
M  V30 5 C -1.3359 -3.7242 0.0 0
M  V30 6 C -2.6365 -1.4778 0.0 0
M  V30 7 C 1.265 -3.7242 0.0 0
M  V30 8 C -0.0472 -4.469 0.0 0
M  V30 9 C -3.9488 -2.2227 0.0 0
M  V30 10 Cl 2.5537 -4.469 0.0 0
M  V30 11 N -3.9606 -3.7123 0.0 0
M  V30 12 C -5.2612 -1.466 0.0 0
M  V30 13 N -5.1902 -4.5872 0.0 0
M  V30 14 C -2.7547 -4.5872 0.0 0
M  V30 15 O -5.273 0.0472 0.0 0
M  V30 16 C -6.5735 -2.2108 0.0 0
M  V30 17 C -4.7409 -6.006 0.0 0
M  V30 18 N -3.2276 -6.006 0.0 0
M  V30 19 C -5.8405 -3.4995 0.0 0
M  V30 20 C -7.8858 -2.9439 0.0 0
M  V30 21 C -7.3302 -0.8985 0.0 0
M  V30 END ATOM
M  V30 BEGIN BOND
M  V30 1 1 1 2
M  V30 2 2 2 3
M  V30 3 1 2 4
M  V30 4 1 3 5
M  V30 5 1 3 6
M  V30 6 2 4 7
M  V30 7 2 5 8
M  V30 8 1 6 9
M  V30 9 1 7 10
M  V30 10 1 9 11
M  V30 11 1 9 12
M  V30 12 1 11 13
M  V30 13 1 11 14
M  V30 14 1 12 15
M  V30 15 1 12 16
M  V30 16 2 13 17
M  V30 17 2 14 18
M  V30 18 1 16 19
M  V30 19 1 16 20
M  V30 20 1 16 21
M  V30 21 1 7 8
M  V30 22 1 17 18
M  V30 END BOND
M  V30 END CTAB
M  END
>  <Molecule Name>
Diclobutrazol

>  <Order (spectra)>
337

>  <NAME>
Diclobutrazol

>  <Molecular Formula>
C15H19N3OCl2

>  <Monoisotopic Mass>
327.090516

>  <SMILES>
CC(C)(C)C(C(CC1=C(C=C(C=C1)Cl)Cl)N2C=NC=N2)O

>  <InChI>
InChI=1S/C15H19Cl2N3O/c1-15(2,3)14(21)13(20-9-18-8-19-20)6-10-4-5-11(16)7-12(10)17/h4-5,7-9,13-14,21H,6H2,1-3H3

>  <InChIKey>
URDNHJIVMYZFRT-UHFFFAOYSA-N

>  <Kingdom>
Organic compounds

>  <Superclass>
Benzenoids

>  <Class>
Benzene and substituted derivatives

>  <Subclass>
Phenethylamines

>  <Parent Level 1>
Amphetamines and derivatives

>  <Parent Level 2>


>  <Parent Level 3>


>  <cLogP>
3.6666

>  <cLogS>
-3.765

>  <Druglikeness>
0.71768

>  <NP-class probability>
0.11

>  <SmilesFragFp 3>


>  <MS_READY_SMILES>
-

>  <MS_READY_InChI>


>  <QSAR_READY_SMILES>
-

>  <QSAR_READY_InChI>


>  <DTXSID>
-

>  <DTXCID>
-

>  <CASRN>
-

>  <EXPOCAST_MEDIAN_EXPOSURE_PREDICTION_MG/KG-BW/DAY>
-

>  <BIOCONCENTRATION_FACTOR_TEST_PRED>
-

>  <BOILING_POINT_DEGC_TEST_PRED>
-

>  <48HR_DAPHNIA_LC50_MOL/L_TEST_PRED>
-

>  <DENSITY_G/CM^3_TEST_PRED>
-

>  <DEVTOX_TEST_PRED>
-

>  <96HR_FATHEAD_MINNOW_MOL/L_TEST_PRED>
-

>  <FLASH_POINT_DEGC_TEST_PRED>
-

>  <MELTING_POINT_DEGC_TEST_PRED>
-

>  <AMES_MUTAGENICITY_TEST_PRED>
-

>  <ORAL_RAT_LD50_MOL/KG_TEST_PRED>
-

>  <SURFACE_TENSION_DYN/CM_TEST_PRED>
-

>  <THERMAL_CONDUCTIVITY_MW/(M*K)_TEST_PRED>
-

>  <TETRAHYMENA_PYRIFORMIS_IGC50_MOL/L_TEST_PRED>
-

>  <VISCOSITY_CP_CP_TEST_PRED>
-

>  <VAPOR_PRESSURE_MMHG_TEST_PRED>
-

>  <WATER_SOLUBILITY_MOL/L_TEST_PRED>
-

>  <ATMOSPHERIC_HYDROXYLATION_RATE_(AOH)_CM3/MOLECULE*SEC_OPERA_PRED>
-

>  <BIOCONCENTRATION_FACTOR_OPERA_PRED>
-

>  <BIODEGRADATION_HALF_LIFE_DAYS_DAYS_OPERA_PRED>
-

>  <BOILING_POINT_DEGC_OPERA_PRED>
-

>  <HENRYS_LAW_ATM-M3/MOLE_OPERA_PRED>
-

>  <OPERA_KM_DAYS_OPERA_PRED>
-

>  <OCTANOL_AIR_PARTITION_COEFF_LOGKOA_OPERA_PRED>
-

>  <SOIL_ADSORPTION_COEFFICIENT_KOC_L/KG_OPERA_PRED>
-

>  <OCTANOL_WATER_PARTITION_LOGP_OPERA_PRED>
-

>  <MELTING_POINT_DEGC_OPERA_PRED>
-

>  <VAPOR_PRESSURE_MMHG_OPERA_PRED>
-

>  <WATER_SOLUBILITY_MOL/L_OPERA_PRED>
-

>  <Shape Index>
0.47619

>  <Molecular Flexibility>
0.5831

>  <Molecular Complexity>
0.77811

>  <Electronegative Atoms>
6

>  <Stereo Centers>
2

>  <Rotatable Bonds>
5

>  <Rings Closures>
2

>  <Aromatic Rings>
2

>  <Aromatic Atoms>
11

>  <Amides>
0

>  <Amines>
0

>  <Aromatic Nitrogens>
3

>  <Shape Index 2>
0.47619

>  <Molecular Flexibility 2>
0.5831

>  <Molecular Complexity 2>
0.77811

>  <Non-C/H Atoms>
6

>  <Electronegative Atoms 2>
6

>  <Stereo Centers 2>
2

>  <Rotatable Bonds 2>
5

>  <Rings Closures 2>
2

>  <Aromatic Rings 2>
2

>  <Aromatic Atoms 2>
11

>  <sp3-Atoms>
8

>  <Amides 2>
0

>  <Amines 2>
0

>  <Aromatic Nitrogens 2>
3

>  <Basic Nitrogens>
0

$$$$
Difenoconazole
Actelion Java MolfileCreator 2.0

  0  0  0  0  0  0              0 V3000
M  V30 BEGIN CTAB
M  V30 COUNTS 27 30 0 0 0
M  V30 BEGIN ATOM
M  V30 1 Cl 0.0 0.0 0.0 0
M  V30 2 C -0.0118 1.5113 0.0 0
M  V30 3 C 1.2752 2.267 0.0 0
M  V30 4 C -1.3224 2.267 0.0 0
M  V30 5 C 1.2634 3.7784 0.0 0
M  V30 6 C 2.5622 1.5349 0.0 0
M  V30 7 C -1.3342 3.7784 0.0 0
M  V30 8 C -0.0472 4.5341 0.0 0
M  V30 9 O 3.7194 0.6021 0.0 0
M  V30 10 O 1.287 0.732 0.0 0
M  V30 11 C 2.6331 3.0463 0.0 0
M  V30 12 O -2.6449 4.5341 0.0 0
M  V30 13 C 3.1644 -0.7911 0.0 0
M  V30 14 C 1.6648 -0.7084 0.0 0
M  V30 15 N 3.9555 3.743 0.0 0
M  V30 16 C -3.9555 3.802 0.0 0
M  V30 17 C 3.9673 -2.0427 0.0 0
M  V30 18 N 5.278 3.0699 0.0 0
M  V30 19 C 4.1798 5.2307 0.0 0
M  V30 20 C -5.2662 4.5577 0.0 0
M  V30 21 C -3.9673 2.3142 0.0 0
M  V30 22 C 6.3288 4.1444 0.0 0
M  V30 23 N 5.644 5.4787 0.0 0
M  V30 24 C -6.5768 3.8256 0.0 0
M  V30 25 C -5.278 1.5822 0.0 0
M  V30 26 C -6.5886 2.3379 0.0 0
M  V30 27 Cl -7.8993 1.6058 0.0 0
M  V30 END ATOM
M  V30 BEGIN BOND
M  V30 1 1 1 2
M  V30 2 2 2 3
M  V30 3 1 2 4
M  V30 4 1 3 5
M  V30 5 1 3 6
M  V30 6 2 4 7
M  V30 7 2 5 8
M  V30 8 1 6 9
M  V30 9 1 6 10
M  V30 10 1 6 11
M  V30 11 1 7 12
M  V30 12 1 9 13
M  V30 13 1 10 14
M  V30 14 1 11 15
M  V30 15 1 12 16
M  V30 16 1 13 17
M  V30 17 1 15 18
M  V30 18 1 15 19
M  V30 19 2 16 20
M  V30 20 1 16 21
M  V30 21 2 18 22
M  V30 22 2 19 23
M  V30 23 1 20 24
M  V30 24 2 21 25
M  V30 25 2 24 26
M  V30 26 1 26 27
M  V30 27 1 7 8
M  V30 28 1 13 14
M  V30 29 1 22 23
M  V30 30 1 25 26
M  V30 END BOND
M  V30 END CTAB
M  END
>  <Molecule Name>
Difenoconazole

>  <Order (spectra)>
338

>  <NAME>
Difenoconazole

>  <Molecular Formula>
C19H17N3O3Cl2

>  <Monoisotopic Mass>
405.064696

>  <SMILES>
CC1COC(CN2C=NC=N2)(O1)C1=C(Cl)C=C(OC2=CC=C(Cl)C=C2)C=C1

>  <InChI>
InChI=1S/C19H17Cl2N3O3/c1-13-9-25-19(27-13,10-24-12-22-11-23-24)17-7-6-16(8-18(17)21)26-15-4-2-14(20)3-5-15/h2-8,11-13H,9-10H2,1H3

>  <InChIKey>
BQYJATMQXGBDHF-UHFFFAOYSA-N

>  <Kingdom>
Organic compounds

>  <Superclass>
Benzenoids

>  <Class>
Benzene and substituted derivatives

>  <Subclass>
Diphenylethers

>  <Parent Level 1>
Diphenylethers

>  <Parent Level 2>


>  <Parent Level 3>


>  <cLogP>
3.5513

>  <cLogS>
-5.121

>  <Druglikeness>
3.7679

>  <NP-class probability>
0.01

>  <SmilesFragFp 3>


>  <MS_READY_SMILES>
CC1COC(CN2C=NC=N2)(O1)C1=C(Cl)C=C(OC2=CC=C(Cl)C=C2)C=C1

>  <MS_READY_InChI>
InChI=1S/C19H17Cl2N3O3/c1-13-9-25-19(27-13,10-24-12-22-11-23-24)17-7-6-16(8-18(17)21)26-15-4-2-14(20)3-5-15/h2-8,11-13H,9-10H2,1H3

>  <QSAR_READY_SMILES>
CC1COC(CN2C=NC=N2)(O1)C1=C(Cl)C=C(OC2=CC=C(Cl)C=C2)C=C1

>  <QSAR_READY_InChI>
InChI=1S/C19H17Cl2N3O3/c1-13-9-25-19(27-13,10-24-12-22-11-23-24)17-7-6-16(8-18(17)21)26-15-4-2-14(20)3-5-15/h2-8,11-13H,9-10H2,1H3

>  <DTXSID>
DTXSID4032372

>  <DTXCID>
DTXCID2012372

>  <CASRN>
119446-68-3

>  <EXPOCAST_MEDIAN_EXPOSURE_PREDICTION_MG/KG-BW/DAY>
1.28E-08

>  <BIOCONCENTRATION_FACTOR_TEST_PRED>
148.936

>  <BOILING_POINT_DEGC_TEST_PRED>
413.931

>  <48HR_DAPHNIA_LC50_MOL/L_TEST_PRED>
1.11E-05

>  <DENSITY_G/CM^3_TEST_PRED>
1.437

>  <DEVTOX_TEST_PRED>
0.413

>  <96HR_FATHEAD_MINNOW_MOL/L_TEST_PRED>
1.69E-06

>  <FLASH_POINT_DEGC_TEST_PRED>
274.113

>  <MELTING_POINT_DEGC_TEST_PRED>
110.169

>  <AMES_MUTAGENICITY_TEST_PRED>
0.467

>  <ORAL_RAT_LD50_MOL/KG_TEST_PRED>
0.00254683

>  <SURFACE_TENSION_DYN/CM_TEST_PRED>
-

>  <THERMAL_CONDUCTIVITY_MW/(M*K)_TEST_PRED>
-

>  <TETRAHYMENA_PYRIFORMIS_IGC50_MOL/L_TEST_PRED>
-

>  <VISCOSITY_CP_CP_TEST_PRED>
-

>  <VAPOR_PRESSURE_MMHG_TEST_PRED>
1.75E-09

>  <WATER_SOLUBILITY_MOL/L_TEST_PRED>
1.40E-05

>  <ATMOSPHERIC_HYDROXYLATION_RATE_(AOH)_CM3/MOLECULE*SEC_OPERA_PRED>
2.32E-11

>  <BIOCONCENTRATION_FACTOR_OPERA_PRED>
230.306

>  <BIODEGRADATION_HALF_LIFE_DAYS_DAYS_OPERA_PRED>
3.36235

>  <BOILING_POINT_DEGC_OPERA_PRED>
335.579

>  <HENRYS_LAW_ATM-M3/MOLE_OPERA_PRED>
4.93E-06

>  <OPERA_KM_DAYS_OPERA_PRED>
2.38939

>  <OCTANOL_AIR_PARTITION_COEFF_LOGKOA_OPERA_PRED>
11.7315

>  <SOIL_ADSORPTION_COEFFICIENT_KOC_L/KG_OPERA_PRED>
4020.3

>  <OCTANOL_WATER_PARTITION_LOGP_OPERA_PRED>
4.29715

>  <MELTING_POINT_DEGC_OPERA_PRED>
76.1053

>  <VAPOR_PRESSURE_MMHG_OPERA_PRED>
2.53E-10

>  <WATER_SOLUBILITY_MOL/L_OPERA_PRED>
3.68E-05

>  <Shape Index>
0.55556

>  <Molecular Flexibility>
0.48205

>  <Molecular Complexity>
0.85009

>  <Electronegative Atoms>
8

>  <Stereo Centers>
2

>  <Rotatable Bonds>
5

>  <Rings Closures>
4

>  <Aromatic Rings>
3

>  <Aromatic Atoms>
17

>  <Amides>
0

>  <Amines>
0

>  <Aromatic Nitrogens>
3

>  <Shape Index 2>
0.55556

>  <Molecular Flexibility 2>
0.48205

>  <Molecular Complexity 2>
0.85009

>  <Non-C/H Atoms>
8

>  <Electronegative Atoms 2>
8

>  <Stereo Centers 2>
2

>  <Rotatable Bonds 2>
5

>  <Rings Closures 2>
4

>  <Aromatic Rings 2>
3

>  <Aromatic Atoms 2>
17

>  <sp3-Atoms>
8

>  <Amides 2>
0

>  <Amines 2>
0

>  <Aromatic Nitrogens 2>
3

>  <Basic Nitrogens>
0

$$$$
Etoxazole
Actelion Java MolfileCreator 2.0

  0  0  0  0  0  0              0 V3000
M  V30 BEGIN CTAB
M  V30 COUNTS 26 28 0 0 0
M  V30 BEGIN ATOM
M  V30 1 F 0.0 0.0 0.0 0
M  V30 2 C 0.8772 1.2328 0.0 0
M  V30 3 C 2.3589 1.0905 0.0 0
M  V30 4 C 0.2489 2.6197 0.0 0
M  V30 5 C 3.2361 2.3234 0.0 0
M  V30 6 C 2.9635 -0.2726 0.0 0
M  V30 7 C 1.1261 3.8525 0.0 0
M  V30 8 F 4.7179 2.1811 0.0 0
M  V30 9 C 2.6079 3.7103 0.0 0
M  V30 10 O 2.2048 -1.5647 0.0 0
M  V30 11 N 4.4215 -0.5689 0.0 0
M  V30 12 C 3.2006 -2.6671 0.0 0
M  V30 13 C 4.5638 -2.0507 0.0 0 CFG=1
M  V30 14 C 5.8559 -2.7975 0.0 0
M  V30 15 C 5.844 -4.2911 0.0 0
M  V30 16 C 7.148 -2.0389 0.0 0
M  V30 17 O 4.5282 -5.0379 0.0 0
M  V30 18 C 7.1361 -5.0379 0.0 0
M  V30 19 C 8.4401 -2.7738 0.0 0
M  V30 20 C 3.2124 -4.2793 0.0 0
M  V30 21 C 8.4282 -4.2793 0.0 0
M  V30 22 C 1.8966 -5.0261 0.0 0
M  V30 23 C 9.7203 -5.0261 0.0 0
M  V30 24 C 10.4671 -3.7103 0.0 0
M  V30 25 C 11.0124 -5.761 0.0 0
M  V30 26 C 8.9617 -6.3182 0.0 0
M  V30 END ATOM
M  V30 BEGIN BOND
M  V30 1 1 1 2
M  V30 2 2 2 3
M  V30 3 1 2 4
M  V30 4 1 3 5
M  V30 5 1 3 6
M  V30 6 2 4 7
M  V30 7 1 5 8
M  V30 8 2 5 9
M  V30 9 1 6 10
M  V30 10 2 6 11
M  V30 11 1 10 12
M  V30 12 1 11 13
M  V30 13 1 13 14 CFG=3
M  V30 14 2 14 15
M  V30 15 1 14 16
M  V30 16 1 15 17
M  V30 17 1 15 18
M  V30 18 2 16 19
M  V30 19 1 17 20
M  V30 20 2 18 21
M  V30 21 1 20 22
M  V30 22 1 21 23
M  V30 23 1 23 24
M  V30 24 1 23 25
M  V30 25 1 23 26
M  V30 26 1 7 9
M  V30 27 1 12 13
M  V30 28 1 19 21
M  V30 END BOND
M  V30 BEGIN COLLECTION
M  V30 MDLV30/STERAC1 ATOMS=(1 13)
M  V30 END COLLECTION
M  V30 END CTAB
M  END
>  <Molecule Name>
Etoxazole

>  <Order (spectra)>
341

>  <NAME>
Etoxazole

>  <Molecular Formula>
C21H23NO2F2

>  <Monoisotopic Mass>
359.169685

>  <SMILES>
CCOC1=C(C=CC(=C1)C(C)(C)C)C1COC(=N1)C1=C(F)C=CC=C1F

>  <InChI>
InChI=1S/C21H23F2NO2/c1-5-25-18-11-13(21(2,3)4)9-10-14(18)17-12-26-20(24-17)19-15(22)7-6-8-16(19)23/h6-11,17H,5,12H2,1-4H3/t17-/m1/s1

>  <InChIKey>
IXSZQYVWNJNRAL-UHFFFAOYSA-N

>  <Kingdom>
Organic compounds

>  <Superclass>
Benzenoids

>  <Class>
Benzene and substituted derivatives

>  <Subclass>
Phenylpropanes

>  <Parent Level 1>
Phenylpropanes

>  <Parent Level 2>


>  <Parent Level 3>


>  <cLogP>
4.81

>  <cLogS>
-5.159

>  <Druglikeness>
-10.298

>  <NP-class probability>
0.02

>  <SmilesFragFp 3>


>  <MS_READY_SMILES>
CCOC1=C(C=CC(=C1)C(C)(C)C)C1COC(=N1)C1=C(F)C=CC=C1F

>  <MS_READY_InChI>
InChI=1S/C21H23F2NO2/c1-5-25-18-11-13(21(2,3)4)9-10-14(18)17-12-26-20(24-17)19-15(22)7-6-8-16(19)23/h6-11,17H,5,12H2,1-4H3/t17-/m1/s1

>  <QSAR_READY_SMILES>
CCOC1=C(C=CC(=C1)C(C)(C)C)C1COC(=N1)C1=C(F)C=CC=C1F

>  <QSAR_READY_InChI>
InChI=1S/C21H23F2NO2/c1-5-25-18-11-13(21(2,3)4)9-10-14(18)17-12-26-20(24-17)19-15(22)7-6-8-16(19)23/h6-11,17H,5,12H2,1-4H3/t17-/m1/s1

>  <DTXSID>
DTXSID8034586

>  <DTXCID>
DTXCID6014586

>  <CASRN>
153233-91-1

>  <EXPOCAST_MEDIAN_EXPOSURE_PREDICTION_MG/KG-BW/DAY>
6.04E-09

>  <BIOCONCENTRATION_FACTOR_TEST_PRED>
348.337

>  <BOILING_POINT_DEGC_TEST_PRED>
355.778

>  <48HR_DAPHNIA_LC50_MOL/L_TEST_PRED>
3.93E-07

>  <DENSITY_G/CM^3_TEST_PRED>
1.186

>  <DEVTOX_TEST_PRED>
0.734

>  <96HR_FATHEAD_MINNOW_MOL/L_TEST_PRED>
9.42E-08

>  <FLASH_POINT_DEGC_TEST_PRED>
222.422

>  <MELTING_POINT_DEGC_TEST_PRED>
100.228

>  <AMES_MUTAGENICITY_TEST_PRED>
0.162

>  <ORAL_RAT_LD50_MOL/KG_TEST_PRED>
0.00251189

>  <SURFACE_TENSION_DYN/CM_TEST_PRED>
-

>  <THERMAL_CONDUCTIVITY_MW/(M*K)_TEST_PRED>
-

>  <TETRAHYMENA_PYRIFORMIS_IGC50_MOL/L_TEST_PRED>
-

>  <VISCOSITY_CP_CP_TEST_PRED>
-

>  <VAPOR_PRESSURE_MMHG_TEST_PRED>
1.60E-07

>  <WATER_SOLUBILITY_MOL/L_TEST_PRED>
4.92E-06

>  <ATMOSPHERIC_HYDROXYLATION_RATE_(AOH)_CM3/MOLECULE*SEC_OPERA_PRED>
1.74E-11

>  <BIOCONCENTRATION_FACTOR_OPERA_PRED>
2393.52

>  <BIODEGRADATION_HALF_LIFE_DAYS_DAYS_OPERA_PRED>
4.44981

>  <BOILING_POINT_DEGC_OPERA_PRED>
365.38

>  <HENRYS_LAW_ATM-M3/MOLE_OPERA_PRED>
5.91E-07

>  <OPERA_KM_DAYS_OPERA_PRED>
0.987746

>  <OCTANOL_AIR_PARTITION_COEFF_LOGKOA_OPERA_PRED>
9.81979

>  <SOIL_ADSORPTION_COEFFICIENT_KOC_L/KG_OPERA_PRED>
1582.27

>  <OCTANOL_WATER_PARTITION_LOGP_OPERA_PRED>
3.76241

>  <MELTING_POINT_DEGC_OPERA_PRED>
101.456

>  <VAPOR_PRESSURE_MMHG_OPERA_PRED>
1.65E-08

>  <WATER_SOLUBILITY_MOL/L_OPERA_PRED>
2.03E-07

>  <Shape Index>
0.5

>  <Molecular Flexibility>
0.40155

>  <Molecular Complexity>
0.84323

>  <Electronegative Atoms>
5

>  <Stereo Centers>
1

>  <Rotatable Bonds>
5

>  <Rings Closures>
3

>  <Aromatic Rings>
2

>  <Aromatic Atoms>
12

>  <Amides>
0

>  <Amines>
0

>  <Aromatic Nitrogens>
0

>  <Shape Index 2>
0.5

>  <Molecular Flexibility 2>
0.40155

>  <Molecular Complexity 2>
0.84323

>  <Non-C/H Atoms>
5

>  <Electronegative Atoms 2>
5

>  <Stereo Centers 2>
1

>  <Rotatable Bonds 2>
5

>  <Rings Closures 2>
3

>  <Aromatic Rings 2>
2

>  <Aromatic Atoms 2>
12

>  <sp3-Atoms>
10

>  <Amides 2>
0

>  <Amines 2>
0

>  <Aromatic Nitrogens 2>
0

>  <Basic Nitrogens>
0

$$$$
Fenarimol
Actelion Java MolfileCreator 2.0

  0  0  0  0  0  0              0 V3000
M  V30 BEGIN CTAB
M  V30 COUNTS 22 24 0 0 0
M  V30 BEGIN ATOM
M  V30 1 Cl 0.0 0.0 0.0 0
M  V30 2 C -0.0125 -1.5311 0.0 0
M  V30 3 C -1.3554 -2.2841 0.0 0
M  V30 4 C 1.3052 -2.2841 0.0 0
M  V30 5 C -1.1797 -3.7775 0.0 0
M  V30 6 C -2.6982 -1.506 0.0 0 CFG=1
M  V30 7 C 1.2926 -3.8152 0.0 0
M  V30 8 C -0.0502 -4.5682 0.0 0
M  V30 9 O -2.7108 0.0502 0.0 0
M  V30 10 C -2.7108 -3.0371 0.0 0
M  V30 11 C -4.0411 -2.259 0.0 0
M  V30 12 C -3.6771 -3.7399 0.0 0
M  V30 13 C -1.7695 -3.8403 0.0 0
M  V30 14 C -5.3839 -1.4809 0.0 0
M  V30 15 C -4.2544 -3.7775 0.0 0
M  V30 16 N -4.0662 -5.3212 0.0 0
M  V30 17 N -1.393 -5.3212 0.0 0
M  V30 18 C -6.7268 -2.2339 0.0 0
M  V30 19 C -5.409 -4.5431 0.0 0
M  V30 20 C -2.7484 -6.0742 0.0 0
M  V30 21 C -6.7393 -3.765 0.0 0
M  V30 22 Cl -8.0822 -4.518 0.0 0
M  V30 END ATOM
M  V30 BEGIN BOND
M  V30 1 1 1 2
M  V30 2 2 2 3
M  V30 3 1 2 4
M  V30 4 1 3 5
M  V30 5 1 3 6
M  V30 6 2 4 7
M  V30 7 2 5 8
M  V30 8 1 6 9
M  V30 9 1 6 10 CFG=3
M  V30 10 1 6 11
M  V30 11 2 10 12
M  V30 12 1 10 13
M  V30 13 2 11 14
M  V30 14 1 11 15
M  V30 15 1 12 16
M  V30 16 2 13 17
M  V30 17 1 14 18
M  V30 18 2 15 19
M  V30 19 2 16 20
M  V30 20 2 18 21
M  V30 21 1 21 22
M  V30 22 1 7 8
M  V30 23 1 17 20
M  V30 24 1 19 21
M  V30 END BOND
M  V30 BEGIN COLLECTION
M  V30 MDLV30/STERAC1 ATOMS=(1 6)
M  V30 END COLLECTION
M  V30 END CTAB
M  END
>  <Molecule Name>
Fenarimol

>  <Order (spectra)>
342

>  <NAME>
Fenarimol

>  <Molecular Formula>
C17H12N2OCl2

>  <Monoisotopic Mass>
330.032667

>  <SMILES>
OC(C1=CC=C(Cl)C=C1)(C1=CN=CN=C1)C1=CC=CC=C1Cl

>  <InChI>
InChI=1S/C17H12Cl2N2O/c18-14-7-5-12(6-8-14)17(22,13-9-20-11-21-10-13)15-3-1-2-4-16(15)19/h1-11,22H/t17-/m0/s1

>  <InChIKey>
NHOWDZOIZKMVAI-UHFFFAOYSA-N

>  <Kingdom>
Organic compounds

>  <Superclass>
Benzenoids

>  <Class>
Benzene and substituted derivatives

>  <Subclass>
Diphenylmethanes

>  <Parent Level 1>
Diphenylmethanes

>  <Parent Level 2>


>  <Parent Level 3>


>  <cLogP>
3.3737

>  <cLogS>
-3.626

>  <Druglikeness>
-0.41083

>  <NP-class probability>
0.02

>  <SmilesFragFp 3>


>  <MS_READY_SMILES>
OC(C1=CC=C(Cl)C=C1)(C1=CN=CN=C1)C1=CC=CC=C1Cl

>  <MS_READY_InChI>
InChI=1S/C17H12Cl2N2O/c18-14-7-5-12(6-8-14)17(22,13-9-20-11-21-10-13)15-3-1-2-4-16(15)19/h1-11,22H/t17-/m0/s1

>  <QSAR_READY_SMILES>
OC(C1=CC=C(Cl)C=C1)(C1=CN=CN=C1)C1=CC=CC=C1Cl

>  <QSAR_READY_InChI>
InChI=1S/C17H12Cl2N2O/c18-14-7-5-12(6-8-14)17(22,13-9-20-11-21-10-13)15-3-1-2-4-16(15)19/h1-11,22H/t17-/m0/s1

>  <DTXSID>
DTXSID2032390

>  <DTXCID>
DTXCID0012390

>  <CASRN>
60168-88-9

>  <EXPOCAST_MEDIAN_EXPOSURE_PREDICTION_MG/KG-BW/DAY>
2.18E-07

>  <BIOCONCENTRATION_FACTOR_TEST_PRED>
234.963

>  <BOILING_POINT_DEGC_TEST_PRED>
401.349

>  <48HR_DAPHNIA_LC50_MOL/L_TEST_PRED>
2.12E-05

>  <DENSITY_G/CM^3_TEST_PRED>
1.423

>  <DEVTOX_TEST_PRED>
0.845

>  <96HR_FATHEAD_MINNOW_MOL/L_TEST_PRED>
4.38E-06

>  <FLASH_POINT_DEGC_TEST_PRED>
241.348

>  <MELTING_POINT_DEGC_TEST_PRED>
160.28

>  <AMES_MUTAGENICITY_TEST_PRED>
0.192

>  <ORAL_RAT_LD50_MOL/KG_TEST_PRED>
0.00753356

>  <SURFACE_TENSION_DYN/CM_TEST_PRED>
-

>  <THERMAL_CONDUCTIVITY_MW/(M*K)_TEST_PRED>
135.668

>  <TETRAHYMENA_PYRIFORMIS_IGC50_MOL/L_TEST_PRED>
7.96E-06

>  <VISCOSITY_CP_CP_TEST_PRED>
-

>  <VAPOR_PRESSURE_MMHG_TEST_PRED>
2.68E-08

>  <WATER_SOLUBILITY_MOL/L_TEST_PRED>
2.12E-05

>  <ATMOSPHERIC_HYDROXYLATION_RATE_(AOH)_CM3/MOLECULE*SEC_OPERA_PRED>
1.42E-11

>  <BIOCONCENTRATION_FACTOR_OPERA_PRED>
145.735

>  <BIODEGRADATION_HALF_LIFE_DAYS_DAYS_OPERA_PRED>
25.8118

>  <BOILING_POINT_DEGC_OPERA_PRED>
353.178

>  <HENRYS_LAW_ATM-M3/MOLE_OPERA_PRED>
5.34E-10

>  <OPERA_KM_DAYS_OPERA_PRED>
3.70757

>  <OCTANOL_AIR_PARTITION_COEFF_LOGKOA_OPERA_PRED>
10.6823

>  <SOIL_ADSORPTION_COEFFICIENT_KOC_L/KG_OPERA_PRED>
603.316

>  <OCTANOL_WATER_PARTITION_LOGP_OPERA_PRED>
3.59023

>  <MELTING_POINT_DEGC_OPERA_PRED>
118.014

>  <VAPOR_PRESSURE_MMHG_OPERA_PRED>
2.23E-07

>  <WATER_SOLUBILITY_MOL/L_OPERA_PRED>
4.20E-05

>  <Shape Index>
0.45455

>  <Molecular Flexibility>
0.45155

>  <Molecular Complexity>
0.8085

>  <Electronegative Atoms>
5

>  <Stereo Centers>
1

>  <Rotatable Bonds>
3

>  <Rings Closures>
3

>  <Aromatic Rings>
3

>  <Aromatic Atoms>
18

>  <Amides>
0

>  <Amines>
0

>  <Aromatic Nitrogens>
2

>  <Shape Index 2>
0.45455

>  <Molecular Flexibility 2>
0.45155

>  <Molecular Complexity 2>
0.8085

>  <Non-C/H Atoms>
5

>  <Electronegative Atoms 2>
5

>  <Stereo Centers 2>
1

>  <Rotatable Bonds 2>
3

>  <Rings Closures 2>
3

>  <Aromatic Rings 2>
3

>  <Aromatic Atoms 2>
18

>  <sp3-Atoms>
2

>  <Amides 2>
0

>  <Amines 2>
0

>  <Aromatic Nitrogens 2>
2

>  <Basic Nitrogens>
0

$$$$
Flusilazole
Actelion Java MolfileCreator 2.0

  0  0  0  0  0  0              0 V3000
M  V30 BEGIN CTAB
M  V30 COUNTS 22 24 0 0 0
M  V30 BEGIN ATOM
M  V30 1 Si 0.0 0.0 0.0 0
M  V30 2 C 1.2904 0.7576 0.0 0
M  V30 3 C -0.0118 -1.4917 0.0 0
M  V30 4 C -1.3141 0.7576 0.0 0
M  V30 5 C 1.2904 -0.7458 0.0 0
M  V30 6 C 2.5809 0.0236 0.0 0
M  V30 7 C 1.2786 2.273 0.0 0
M  V30 8 C -1.3259 -2.2257 0.0 0
M  V30 9 C 1.2786 -2.2375 0.0 0
M  V30 10 N -2.6282 0.0118 0.0 0
M  V30 11 C 3.8713 0.7813 0.0 0
M  V30 12 C 2.569 3.0426 0.0 0
M  V30 13 C -1.3378 -3.7174 0.0 0
M  V30 14 C 1.2667 -3.7292 0.0 0
M  V30 15 N -4.0134 0.6393 0.0 0
M  V30 16 C -2.794 -1.468 0.0 0
M  V30 17 C 3.8595 2.2967 0.0 0
M  V30 18 C -0.0473 -4.4633 0.0 0
M  V30 19 C -5.0315 -0.4617 0.0 0
M  V30 20 N -4.2738 -1.764 0.0 0
M  V30 21 F 5.1499 3.0544 0.0 0
M  V30 22 F -0.0591 -5.955 0.0 0
M  V30 END ATOM
M  V30 BEGIN BOND
M  V30 1 1 1 2
M  V30 2 1 1 3
M  V30 3 1 1 4
M  V30 4 1 1 5
M  V30 5 2 2 6
M  V30 6 1 2 7
M  V30 7 2 3 8
M  V30 8 1 3 9
M  V30 9 1 4 10
M  V30 10 1 6 11
M  V30 11 2 7 12
M  V30 12 1 8 13
M  V30 13 2 9 14
M  V30 14 1 10 15
M  V30 15 1 10 16
M  V30 16 2 11 17
M  V30 17 2 13 18
M  V30 18 2 15 19
M  V30 19 2 16 20
M  V30 20 1 17 21
M  V30 21 1 18 22
M  V30 22 1 12 17
M  V30 23 1 14 18
M  V30 24 1 19 20
M  V30 END BOND
M  V30 END CTAB
M  END
>  <Molecule Name>
Flusilazole

>  <Order (spectra)>
344

>  <NAME>
Flusilazole

>  <Molecular Formula>
C16H15N3F2Si

>  <Monoisotopic Mass>
315.10033

>  <SMILES>
C[Si](CN1C=NC=N1)(C1=CC=C(F)C=C1)C1=CC=C(F)C=C1

>  <InChI>
InChI=1S/C16H15F2N3Si/c1-22(12-21-11-19-10-20-21,15-6-2-13(17)3-7-15)16-8-4-14(18)5-9-16/h2-11H,12H2,1H3

>  <InChIKey>
FQKUGOMFVDPBIZ-UHFFFAOYSA-N

>  <Kingdom>
Organic compounds

>  <Superclass>
Benzenoids

>  <Class>
Benzene and substituted derivatives

>  <Subclass>
Halobenzenes

>  <Parent Level 1>
Fluorobenzenes

>  <Parent Level 2>


>  <Parent Level 3>


>  <cLogP>
3.5935

>  <cLogS>
-3.779

>  <Druglikeness>
-27.05

>  <NP-class probability>
0.02

>  <SmilesFragFp 3>


>  <MS_READY_SMILES>
-

>  <MS_READY_InChI>


>  <QSAR_READY_SMILES>
C[Si](CN1C=NC=N1)(C1=CC=C(F)C=C1)C1=CC=C(F)C=C1

>  <QSAR_READY_InChI>
InChI=1S/C16H15F2N3Si/c1-22(12-21-11-19-10-20-21,15-6-2-13(17)3-7-15)16-8-4-14(18)5-9-16/h2-11H,12H2,1H3

>  <DTXSID>
DTXSID3024235

>  <DTXCID>
DTXCID704235

>  <CASRN>
85509-19-9

>  <EXPOCAST_MEDIAN_EXPOSURE_PREDICTION_MG/KG-BW/DAY>
2.57E-07

>  <BIOCONCENTRATION_FACTOR_TEST_PRED>
123.027

>  <BOILING_POINT_DEGC_TEST_PRED>
360.109

>  <48HR_DAPHNIA_LC50_MOL/L_TEST_PRED>
-

>  <DENSITY_G/CM^3_TEST_PRED>
1.294

>  <DEVTOX_TEST_PRED>
0.117

>  <96HR_FATHEAD_MINNOW_MOL/L_TEST_PRED>
-

>  <FLASH_POINT_DEGC_TEST_PRED>
228.873

>  <MELTING_POINT_DEGC_TEST_PRED>
97.085

>  <AMES_MUTAGENICITY_TEST_PRED>
-

>  <ORAL_RAT_LD50_MOL/KG_TEST_PRED>
-

>  <SURFACE_TENSION_DYN/CM_TEST_PRED>
-

>  <THERMAL_CONDUCTIVITY_MW/(M*K)_TEST_PRED>
-

>  <TETRAHYMENA_PYRIFORMIS_IGC50_MOL/L_TEST_PRED>
-

>  <VISCOSITY_CP_CP_TEST_PRED>
-

>  <VAPOR_PRESSURE_MMHG_TEST_PRED>
1.77E-07

>  <WATER_SOLUBILITY_MOL/L_TEST_PRED>
-

>  <ATMOSPHERIC_HYDROXYLATION_RATE_(AOH)_CM3/MOLECULE*SEC_OPERA_PRED>
1.62E-11

>  <BIOCONCENTRATION_FACTOR_OPERA_PRED>
63.8364

>  <BIODEGRADATION_HALF_LIFE_DAYS_DAYS_OPERA_PRED>
200.596

>  <BOILING_POINT_DEGC_OPERA_PRED>
348.793

>  <HENRYS_LAW_ATM-M3/MOLE_OPERA_PRED>
2.70E-07

>  <OPERA_KM_DAYS_OPERA_PRED>
0.625172

>  <OCTANOL_AIR_PARTITION_COEFF_LOGKOA_OPERA_PRED>
8.52515

>  <SOIL_ADSORPTION_COEFFICIENT_KOC_L/KG_OPERA_PRED>
1657.38

>  <OCTANOL_WATER_PARTITION_LOGP_OPERA_PRED>
3.70142

>  <MELTING_POINT_DEGC_OPERA_PRED>
54.0469

>  <VAPOR_PRESSURE_MMHG_OPERA_PRED>
2.93E-07

>  <WATER_SOLUBILITY_MOL/L_OPERA_PRED>
0.000149013

>  <Shape Index>
0.5

>  <Molecular Flexibility>
0.49914

>  <Molecular Complexity>
0.70075

>  <Electronegative Atoms>
5

>  <Stereo Centers>
0

>  <Rotatable Bonds>
4

>  <Rings Closures>
3

>  <Aromatic Rings>
3

>  <Aromatic Atoms>
17

>  <Amides>
0

>  <Amines>
0

>  <Aromatic Nitrogens>
3

>  <Shape Index 2>
0.5

>  <Molecular Flexibility 2>
0.49914

>  <Molecular Complexity 2>
0.70075

>  <Non-C/H Atoms>
6

>  <Electronegative Atoms 2>
5

>  <Stereo Centers 2>
0

>  <Rotatable Bonds 2>
4

>  <Rings Closures 2>
3

>  <Aromatic Rings 2>
3

>  <Aromatic Atoms 2>
17

>  <sp3-Atoms>
2

>  <Amides 2>
0

>  <Amines 2>
0

>  <Aromatic Nitrogens 2>
3

>  <Basic Nitrogens>
0

$$$$
Flutriafol
Actelion Java MolfileCreator 2.0

  0  0  0  0  0  0              0 V3000
M  V30 BEGIN CTAB
M  V30 COUNTS 22 24 0 0 0
M  V30 BEGIN ATOM
M  V30 1 F 0.0 0.0 0.0 0
M  V30 2 C -0.0138 1.7775 0.0 0
M  V30 3 C -1.3331 2.2913 0.0 0
M  V30 4 C 1.2776 2.2913 0.0 0
M  V30 5 C -1.347 3.8189 0.0 0
M  V30 6 C -2.6524 1.5553 0.0 0 CFG=1
M  V30 7 C 1.2637 3.8189 0.0 0
M  V30 8 C -0.0555 4.5827 0.0 0
M  V30 9 O -2.6663 0.0555 0.0 0
M  V30 10 C -1.3609 0.8193 0.0 0
M  V30 11 C -3.9717 2.3191 0.0 0
M  V30 12 C -1.3748 -0.6804 0.0 0
M  V30 13 C -0.0694 1.3331 0.0 0
M  V30 14 N -5.291 1.5831 0.0 0
M  V30 15 C -0.0833 -1.4164 0.0 0
M  V30 16 C 1.222 0.8471 0.0 0
M  V30 17 N -6.6797 2.208 0.0 0
M  V30 18 C -5.4576 0.0972 0.0 0
M  V30 19 C 1.2081 -0.6526 0.0 0
M  V30 20 C -7.7074 1.097 0.0 0
M  V30 21 N -6.9436 -0.2083 0.0 0
M  V30 22 F 2.4997 -1.3887 0.0 0
M  V30 END ATOM
M  V30 BEGIN BOND
M  V30 1 1 1 2
M  V30 2 2 2 3
M  V30 3 1 2 4
M  V30 4 1 3 5
M  V30 5 1 3 6
M  V30 6 2 4 7
M  V30 7 2 5 8
M  V30 8 1 6 9
M  V30 9 1 6 10 CFG=1
M  V30 10 1 6 11
M  V30 11 2 10 12
M  V30 12 1 10 13
M  V30 13 1 11 14
M  V30 14 1 12 15
M  V30 15 2 13 16
M  V30 16 1 14 17
M  V30 17 1 14 18
M  V30 18 2 15 19
M  V30 19 2 17 20
M  V30 20 2 18 21
M  V30 21 1 19 22
M  V30 22 1 7 8
M  V30 23 1 16 19
M  V30 24 1 20 21
M  V30 END BOND
M  V30 BEGIN COLLECTION
M  V30 MDLV30/STERAC1 ATOMS=(1 6)
M  V30 END COLLECTION
M  V30 END CTAB
M  END
>  <Molecule Name>
Flutriafol

>  <Order (spectra)>
345

>  <NAME>
Flutriafol

>  <Molecular Formula>
C16H13N3OF2

>  <Monoisotopic Mass>
301.102668

>  <SMILES>
OC(CN1C=NC=N1)(C1=CC=C(F)C=C1)C1=C(F)C=CC=C1

>  <InChI>
InChI=1S/C16H13F2N3O/c17-13-7-5-12(6-8-13)16(22,9-21-11-19-10-20-21)14-3-1-2-4-15(14)18/h1-8,10-11,22H,9H2/t16-/m0/s1

>  <InChIKey>
JWUCHKBSVLQQCO-UHFFFAOYSA-N

>  <Kingdom>
Organic compounds

>  <Superclass>
Benzenoids

>  <Class>
Benzene and substituted derivatives

>  <Subclass>
Diphenylmethanes

>  <Parent Level 1>
Diphenylmethanes

>  <Parent Level 2>


>  <Parent Level 3>


>  <cLogP>
1.7799

>  <cLogS>
-3.269

>  <Druglikeness>
3.0382

>  <NP-class probability>
0

>  <SmilesFragFp 3>


>  <MS_READY_SMILES>
OC(CN1C=NC=N1)(C1=CC=C(F)C=C1)C1=C(F)C=CC=C1

>  <MS_READY_InChI>
InChI=1S/C16H13F2N3O/c17-13-7-5-12(6-8-13)16(22,9-21-11-19-10-20-21)14-3-1-2-4-15(14)18/h1-8,10-11,22H,9H2/t16-/m0/s1

>  <QSAR_READY_SMILES>
OC(CN1C=NC=N1)(C1=CC=C(F)C=C1)C1=C(F)C=CC=C1

>  <QSAR_READY_InChI>
InChI=1S/C16H13F2N3O/c17-13-7-5-12(6-8-13)16(22,9-21-11-19-10-20-21)14-3-1-2-4-15(14)18/h1-8,10-11,22H,9H2/t16-/m0/s1

>  <DTXSID>
DTXSID8040727

>  <DTXCID>
DTXCID6020727

>  <CASRN>
76674-21-0

>  <EXPOCAST_MEDIAN_EXPOSURE_PREDICTION_MG/KG-BW/DAY>
2.90E-07

>  <BIOCONCENTRATION_FACTOR_TEST_PRED>
72.778

>  <BOILING_POINT_DEGC_TEST_PRED>
389.51

>  <48HR_DAPHNIA_LC50_MOL/L_TEST_PRED>
3.63E-05

>  <DENSITY_G/CM^3_TEST_PRED>
1.412

>  <DEVTOX_TEST_PRED>
0.541

>  <96HR_FATHEAD_MINNOW_MOL/L_TEST_PRED>
1.53E-05

>  <FLASH_POINT_DEGC_TEST_PRED>
244.451

>  <MELTING_POINT_DEGC_TEST_PRED>
119.283

>  <AMES_MUTAGENICITY_TEST_PRED>
0.701

>  <ORAL_RAT_LD50_MOL/KG_TEST_PRED>
0.00143219

>  <SURFACE_TENSION_DYN/CM_TEST_PRED>
-

>  <THERMAL_CONDUCTIVITY_MW/(M*K)_TEST_PRED>
-

>  <TETRAHYMENA_PYRIFORMIS_IGC50_MOL/L_TEST_PRED>
-

>  <VISCOSITY_CP_CP_TEST_PRED>
-

>  <VAPOR_PRESSURE_MMHG_TEST_PRED>
2.64E-08

>  <WATER_SOLUBILITY_MOL/L_TEST_PRED>
5.21E-05

>  <ATMOSPHERIC_HYDROXYLATION_RATE_(AOH)_CM3/MOLECULE*SEC_OPERA_PRED>
1.61E-11

>  <BIOCONCENTRATION_FACTOR_OPERA_PRED>
21.8752

>  <BIODEGRADATION_HALF_LIFE_DAYS_DAYS_OPERA_PRED>
3.54072

>  <BOILING_POINT_DEGC_OPERA_PRED>
324.746

>  <HENRYS_LAW_ATM-M3/MOLE_OPERA_PRED>
5.12E-09

>  <OPERA_KM_DAYS_OPERA_PRED>
0.867538

>  <OCTANOL_AIR_PARTITION_COEFF_LOGKOA_OPERA_PRED>
10.4119

>  <SOIL_ADSORPTION_COEFFICIENT_KOC_L/KG_OPERA_PRED>
75.8068

>  <OCTANOL_WATER_PARTITION_LOGP_OPERA_PRED>
2.29094

>  <MELTING_POINT_DEGC_OPERA_PRED>
129.956

>  <VAPOR_PRESSURE_MMHG_OPERA_PRED>
5.44E-11

>  <WATER_SOLUBILITY_MOL/L_OPERA_PRED>
0.000394801

>  <Shape Index>
0.45455

>  <Molecular Flexibility>
0.45496

>  <Molecular Complexity>
0.83479

>  <Electronegative Atoms>
6

>  <Stereo Centers>
1

>  <Rotatable Bonds>
4

>  <Rings Closures>
3

>  <Aromatic Rings>
3

>  <Aromatic Atoms>
17

>  <Amides>
0

>  <Amines>
0

>  <Aromatic Nitrogens>
3

>  <Shape Index 2>
0.45455

>  <Molecular Flexibility 2>
0.45496

>  <Molecular Complexity 2>
0.83479

>  <Non-C/H Atoms>
6

>  <Electronegative Atoms 2>
6

>  <Stereo Centers 2>
1

>  <Rotatable Bonds 2>
4

>  <Rings Closures 2>
3

>  <Aromatic Rings 2>
3

>  <Aromatic Atoms 2>
17

>  <sp3-Atoms>
3

>  <Amides 2>
0

>  <Amines 2>
0

>  <Aromatic Nitrogens 2>
3

>  <Basic Nitrogens>
0

$$$$
Hexaconazole
Actelion Java MolfileCreator 2.0

  0  0  0  0  0  0              0 V3000
M  V30 BEGIN CTAB
M  V30 COUNTS 20 21 0 0 0
M  V30 BEGIN ATOM
M  V30 1 Cl 0.0 0.0 0.0 0
M  V30 2 C 1.2914 -0.7464 0.0 0
M  V30 3 C 2.5829 0.0118 0.0 0
M  V30 4 C 1.2796 -2.2393 0.0 0
M  V30 5 C 3.8743 -0.7345 0.0 0
M  V30 6 C 2.571 1.5284 0.0 0 CFG=1
M  V30 7 C 2.571 -2.9857 0.0 0
M  V30 8 C 3.8625 -2.2274 0.0 0
M  V30 9 O 2.5592 3.0449 0.0 0
M  V30 10 C 3.8625 2.2867 0.0 0
M  V30 11 C 1.2559 2.2867 0.0 0
M  V30 12 Cl 2.5592 -4.4786 0.0 0
M  V30 13 N 5.1539 1.5402 0.0 0
M  V30 14 C -0.0592 1.5402 0.0 0
M  V30 15 N 5.2961 0.0592 0.0 0
M  V30 16 C 6.5165 2.1682 0.0 0
M  V30 17 C -1.3743 2.2985 0.0 0
M  V30 18 C 6.7534 -0.2369 0.0 0
M  V30 19 N 7.5117 1.0663 0.0 0
M  V30 20 C -2.6895 1.5521 0.0 0
M  V30 END ATOM
M  V30 BEGIN BOND
M  V30 1 1 1 2
M  V30 2 2 2 3
M  V30 3 1 2 4
M  V30 4 1 3 5
M  V30 5 1 3 6
M  V30 6 2 4 7
M  V30 7 2 5 8
M  V30 8 1 6 9 CFG=1
M  V30 9 1 6 10
M  V30 10 1 6 11
M  V30 11 1 7 12
M  V30 12 1 10 13
M  V30 13 1 11 14
M  V30 14 1 13 15
M  V30 15 1 13 16
M  V30 16 1 14 17
M  V30 17 2 15 18
M  V30 18 2 16 19
M  V30 19 1 17 20
M  V30 20 1 7 8
M  V30 21 1 18 19
M  V30 END BOND
M  V30 BEGIN COLLECTION
M  V30 MDLV30/STERAC1 ATOMS=(1 6)
M  V30 END COLLECTION
M  V30 END CTAB
M  END
>  <Molecule Name>
Hexaconazole

>  <Order (spectra)>
346

>  <NAME>
Hexaconazole

>  <Molecular Formula>
C14H17N3OCl2

>  <Monoisotopic Mass>
313.074866

>  <SMILES>
CCCCC(O)(CN1C=NC=N1)C1=CC=C(Cl)C=C1Cl

>  <InChI>
InChI=1S/C14H17Cl2N3O/c1-2-3-6-14(20,8-19-10-17-9-18-19)12-5-4-11(15)7-13(12)16/h4-5,7,9-10,20H,2-3,6,8H2,1H3/t14-/m0/s1

>  <InChIKey>
STMIIPIFODONDC-UHFFFAOYSA-N

>  <Kingdom>
Organic compounds

>  <Superclass>
Benzenoids

>  <Class>
Benzene and substituted derivatives

>  <Subclass>
Halobenzenes

>  <Parent Level 1>
Chlorobenzenes

>  <Parent Level 2>
Dichlorobenzenes

>  <Parent Level 3>


>  <cLogP>
3.3877

>  <cLogS>
-4.048

>  <Druglikeness>
-0.98491

>  <NP-class probability>
0.01

>  <SmilesFragFp 3>


>  <MS_READY_SMILES>
CCCCC(O)(CN1C=NC=N1)C1=CC=C(Cl)C=C1Cl

>  <MS_READY_InChI>
InChI=1S/C14H17Cl2N3O/c1-2-3-6-14(20,8-19-10-17-9-18-19)12-5-4-11(15)7-13(12)16/h4-5,7,9-10,20H,2-3,6,8H2,1H3/t14-/m0/s1

>  <QSAR_READY_SMILES>
CCCCC(O)(CN1C=NC=N1)C1=CC=C(Cl)C=C1Cl

>  <QSAR_READY_InChI>
InChI=1S/C14H17Cl2N3O/c1-2-3-6-14(20,8-19-10-17-9-18-19)12-5-4-11(15)7-13(12)16/h4-5,7,9-10,20H,2-3,6,8H2,1H3/t14-/m0/s1

>  <DTXSID>
DTXSID4034653

>  <DTXCID>
DTXCID2014653

>  <CASRN>
79983-71-4

>  <EXPOCAST_MEDIAN_EXPOSURE_PREDICTION_MG/KG-BW/DAY>
1.69E-07

>  <BIOCONCENTRATION_FACTOR_TEST_PRED>
102.565

>  <BOILING_POINT_DEGC_TEST_PRED>
369.764

>  <48HR_DAPHNIA_LC50_MOL/L_TEST_PRED>
4.45E-05

>  <DENSITY_G/CM^3_TEST_PRED>
1.336

>  <DEVTOX_TEST_PRED>
0.468

>  <96HR_FATHEAD_MINNOW_MOL/L_TEST_PRED>
1.01E-05

>  <FLASH_POINT_DEGC_TEST_PRED>
227.764

>  <MELTING_POINT_DEGC_TEST_PRED>
109.949

>  <AMES_MUTAGENICITY_TEST_PRED>
0.323

>  <ORAL_RAT_LD50_MOL/KG_TEST_PRED>
0.00615177

>  <SURFACE_TENSION_DYN/CM_TEST_PRED>
-

>  <THERMAL_CONDUCTIVITY_MW/(M*K)_TEST_PRED>
-

>  <TETRAHYMENA_PYRIFORMIS_IGC50_MOL/L_TEST_PRED>
-

>  <VISCOSITY_CP_CP_TEST_PRED>
-

>  <VAPOR_PRESSURE_MMHG_TEST_PRED>
1.41E-07

>  <WATER_SOLUBILITY_MOL/L_TEST_PRED>
0.000086896

>  <ATMOSPHERIC_HYDROXYLATION_RATE_(AOH)_CM3/MOLECULE*SEC_OPERA_PRED>
1.66E-11

>  <BIOCONCENTRATION_FACTOR_OPERA_PRED>
43.8003

>  <BIODEGRADATION_HALF_LIFE_DAYS_DAYS_OPERA_PRED>
3.34972

>  <BOILING_POINT_DEGC_OPERA_PRED>
321.193

>  <HENRYS_LAW_ATM-M3/MOLE_OPERA_PRED>
5.47E-10

>  <OPERA_KM_DAYS_OPERA_PRED>
2.21358

>  <OCTANOL_AIR_PARTITION_COEFF_LOGKOA_OPERA_PRED>
10.6778

>  <SOIL_ADSORPTION_COEFFICIENT_KOC_L/KG_OPERA_PRED>
333.811

>  <OCTANOL_WATER_PARTITION_LOGP_OPERA_PRED>
3.89879

>  <MELTING_POINT_DEGC_OPERA_PRED>
111.122

>  <VAPOR_PRESSURE_MMHG_OPERA_PRED>
1.36E-07

>  <WATER_SOLUBILITY_MOL/L_OPERA_PRED>
5.58E-05

>  <Shape Index>
0.5

>  <Molecular Flexibility>
0.50835

>  <Molecular Complexity>
0.8075

>  <Electronegative Atoms>
6

>  <Stereo Centers>
1

>  <Rotatable Bonds>
6

>  <Rings Closures>
2

>  <Aromatic Rings>
2

>  <Aromatic Atoms>
11

>  <Amides>
0

>  <Amines>
0

>  <Aromatic Nitrogens>
3

>  <Shape Index 2>
0.5

>  <Molecular Flexibility 2>
0.50835

>  <Molecular Complexity 2>
0.8075

>  <Non-C/H Atoms>
6

>  <Electronegative Atoms 2>
6

>  <Stereo Centers 2>
1

>  <Rotatable Bonds 2>
6

>  <Rings Closures 2>
2

>  <Aromatic Rings 2>
2

>  <Aromatic Atoms 2>
11

>  <sp3-Atoms>
7

>  <Amides 2>
0

>  <Amines 2>
0

>  <Aromatic Nitrogens 2>
3

>  <Basic Nitrogens>
0

$$$$
Nuarimol
Actelion Java MolfileCreator 2.0

  0  0  0  0  0  0              0 V3000
M  V30 BEGIN CTAB
M  V30 COUNTS 22 24 0 0 0
M  V30 BEGIN ATOM
M  V30 1 Cl 0.0 0.0 0.0 0
M  V30 2 C -0.0125 -1.5311 0.0 0
M  V30 3 C -1.3554 -2.2841 0.0 0
M  V30 4 C 1.3052 -2.2841 0.0 0
M  V30 5 C -1.1797 -3.7775 0.0 0
M  V30 6 C -2.6982 -1.506 0.0 0 CFG=1
M  V30 7 C 1.2926 -3.8152 0.0 0
M  V30 8 C -0.0502 -4.5682 0.0 0
M  V30 9 O -2.7108 0.0502 0.0 0
M  V30 10 C -2.7108 -3.0371 0.0 0
M  V30 11 C -4.0411 -2.259 0.0 0
M  V30 12 C -3.6771 -3.7399 0.0 0
M  V30 13 C -1.7695 -3.8403 0.0 0
M  V30 14 C -5.3839 -1.4809 0.0 0
M  V30 15 C -4.2544 -3.7775 0.0 0
M  V30 16 N -4.0662 -5.3212 0.0 0
M  V30 17 N -1.393 -5.3212 0.0 0
M  V30 18 C -6.7268 -2.2339 0.0 0
M  V30 19 C -5.409 -4.5431 0.0 0
M  V30 20 C -2.7484 -6.0742 0.0 0
M  V30 21 C -6.7393 -3.765 0.0 0
M  V30 22 F -8.0822 -4.518 0.0 0
M  V30 END ATOM
M  V30 BEGIN BOND
M  V30 1 1 1 2
M  V30 2 2 2 3
M  V30 3 1 2 4
M  V30 4 1 3 5
M  V30 5 1 3 6
M  V30 6 2 4 7
M  V30 7 2 5 8
M  V30 8 1 6 9
M  V30 9 1 6 10 CFG=3
M  V30 10 1 6 11
M  V30 11 2 10 12
M  V30 12 1 10 13
M  V30 13 2 11 14
M  V30 14 1 11 15
M  V30 15 1 12 16
M  V30 16 2 13 17
M  V30 17 1 14 18
M  V30 18 2 15 19
M  V30 19 2 16 20
M  V30 20 2 18 21
M  V30 21 1 21 22
M  V30 22 1 7 8
M  V30 23 1 17 20
M  V30 24 1 19 21
M  V30 END BOND
M  V30 BEGIN COLLECTION
M  V30 MDLV30/STERAC1 ATOMS=(1 6)
M  V30 END COLLECTION
M  V30 END CTAB
M  END
>  <Molecule Name>
Nuarimol

>  <Order (spectra)>
347

>  <NAME>
Nuarimol

>  <Molecular Formula>
C17H12N2OClF

>  <Monoisotopic Mass>
314.062218

>  <SMILES>
OC(C1=CC=C(F)C=C1)(C1=CN=CN=C1)C1=CC=CC=C1Cl

>  <InChI>
InChI=1S/C17H12ClFN2O/c18-16-4-2-1-3-15(16)17(22,13-9-20-11-21-10-13)12-5-7-14(19)8-6-12/h1-11,22H/t17-/m0/s1

>  <InChIKey>
SAPGTCDSBGMXCD-UHFFFAOYSA-N

>  <Kingdom>
Organic compounds

>  <Superclass>
Benzenoids

>  <Class>
Benzene and substituted derivatives

>  <Subclass>
Diphenylmethanes

>  <Parent Level 1>
Diphenylmethanes

>  <Parent Level 2>


>  <Parent Level 3>


>  <cLogP>
2.8685

>  <cLogS>
-3.204

>  <Druglikeness>
-1.7508

>  <NP-class probability>
0

>  <SmilesFragFp 3>


>  <MS_READY_SMILES>
OC(C1=CC=C(F)C=C1)(C1=CN=CN=C1)C1=CC=CC=C1Cl

>  <MS_READY_InChI>
InChI=1S/C17H12ClFN2O/c18-16-4-2-1-3-15(16)17(22,13-9-20-11-21-10-13)12-5-7-14(19)8-6-12/h1-11,22H/t17-/m0/s1

>  <QSAR_READY_SMILES>
OC(C1=CC=C(F)C=C1)(C1=CN=CN=C1)C1=CC=CC=C1Cl

>  <QSAR_READY_InChI>
InChI=1S/C17H12ClFN2O/c18-16-4-2-1-3-15(16)17(22,13-9-20-11-21-10-13)12-5-7-14(19)8-6-12/h1-11,22H/t17-/m0/s1

>  <DTXSID>
DTXSID2042220

>  <DTXCID>
DTXCID0022220

>  <CASRN>
63284-71-9

>  <EXPOCAST_MEDIAN_EXPOSURE_PREDICTION_MG/KG-BW/DAY>
2.20E-07

>  <BIOCONCENTRATION_FACTOR_TEST_PRED>
199.067

>  <BOILING_POINT_DEGC_TEST_PRED>
398.526

>  <48HR_DAPHNIA_LC50_MOL/L_TEST_PRED>
1.52E-05

>  <DENSITY_G/CM^3_TEST_PRED>
1.405

>  <DEVTOX_TEST_PRED>
0.843

>  <96HR_FATHEAD_MINNOW_MOL/L_TEST_PRED>
5.41E-06

>  <FLASH_POINT_DEGC_TEST_PRED>
242.961

>  <MELTING_POINT_DEGC_TEST_PRED>
153.569

>  <AMES_MUTAGENICITY_TEST_PRED>
0.138

>  <ORAL_RAT_LD50_MOL/KG_TEST_PRED>
0.00390841

>  <SURFACE_TENSION_DYN/CM_TEST_PRED>
-

>  <THERMAL_CONDUCTIVITY_MW/(M*K)_TEST_PRED>
136.287

>  <TETRAHYMENA_PYRIFORMIS_IGC50_MOL/L_TEST_PRED>
1.94E-05

>  <VISCOSITY_CP_CP_TEST_PRED>
-

>  <VAPOR_PRESSURE_MMHG_TEST_PRED>
6.00E-08

>  <WATER_SOLUBILITY_MOL/L_TEST_PRED>
7.66E-05

>  <ATMOSPHERIC_HYDROXYLATION_RATE_(AOH)_CM3/MOLECULE*SEC_OPERA_PRED>
1.51E-11

>  <BIOCONCENTRATION_FACTOR_OPERA_PRED>
101.898

>  <BIODEGRADATION_HALF_LIFE_DAYS_DAYS_OPERA_PRED>
5.22413

>  <BOILING_POINT_DEGC_OPERA_PRED>
333.942

>  <HENRYS_LAW_ATM-M3/MOLE_OPERA_PRED>
1.83E-09

>  <OPERA_KM_DAYS_OPERA_PRED>
1.63281

>  <OCTANOL_AIR_PARTITION_COEFF_LOGKOA_OPERA_PRED>
11.1931

>  <SOIL_ADSORPTION_COEFFICIENT_KOC_L/KG_OPERA_PRED>
245.109

>  <OCTANOL_WATER_PARTITION_LOGP_OPERA_PRED>
3.18022

>  <MELTING_POINT_DEGC_OPERA_PRED>
125.982

>  <VAPOR_PRESSURE_MMHG_OPERA_PRED>
3.37E-09

>  <WATER_SOLUBILITY_MOL/L_OPERA_PRED>
8.29E-05

>  <Shape Index>
0.45455

>  <Molecular Flexibility>
0.45155

>  <Molecular Complexity>
0.8085

>  <Electronegative Atoms>
5

>  <Stereo Centers>
1

>  <Rotatable Bonds>
3

>  <Rings Closures>
3

>  <Aromatic Rings>
3

>  <Aromatic Atoms>
18

>  <Amides>
0

>  <Amines>
0

>  <Aromatic Nitrogens>
2

>  <Shape Index 2>
0.45455

>  <Molecular Flexibility 2>
0.45155

>  <Molecular Complexity 2>
0.8085

>  <Non-C/H Atoms>
5

>  <Electronegative Atoms 2>
5

>  <Stereo Centers 2>
1

>  <Rotatable Bonds 2>
3

>  <Rings Closures 2>
3

>  <Aromatic Rings 2>
3

>  <Aromatic Atoms 2>
18

>  <sp3-Atoms>
2

>  <Amides 2>
0

>  <Amines 2>
0

>  <Aromatic Nitrogens 2>
2

>  <Basic Nitrogens>
0

$$$$
Paclobutrazol
Actelion Java MolfileCreator 2.0

  0  0  0  0  0  0              0 V3000
M  V30 BEGIN CTAB
M  V30 COUNTS 20 21 0 0 0
M  V30 BEGIN ATOM
M  V30 1 Cl 0.0 0.0 0.0 0
M  V30 2 C -1.3066 0.7533 0.0 0
M  V30 3 C -1.3184 2.2601 0.0 0
M  V30 4 C -2.6133 0.0117 0.0 0
M  V30 5 C -2.6251 3.0135 0.0 0
M  V30 6 C -3.92 0.7651 0.0 0
M  V30 7 C -3.9317 2.2719 0.0 0
M  V30 8 C -5.2384 3.0253 0.0 0
M  V30 9 C -6.5451 2.2837 0.0 0 CFG=2
M  V30 10 N -6.5569 0.8004 0.0 0
M  V30 11 C -7.8518 3.0371 0.0 0
M  V30 12 N -7.7811 -0.0706 0.0 0
M  V30 13 C -5.3561 -0.0706 0.0 0
M  V30 14 O -7.8635 4.5439 0.0 0
M  V30 15 C -9.1584 2.2955 0.0 0
M  V30 16 C -7.3338 -1.4832 0.0 0
M  V30 17 N -5.827 -1.4832 0.0 0
M  V30 18 C -8.4286 1.0123 0.0 0
M  V30 19 C -10.4651 1.5656 0.0 0
M  V30 20 C -9.9118 3.6021 0.0 0
M  V30 END ATOM
M  V30 BEGIN BOND
M  V30 1 1 1 2
M  V30 2 2 2 3
M  V30 3 1 2 4
M  V30 4 1 3 5
M  V30 5 2 4 6
M  V30 6 2 5 7
M  V30 7 1 7 8
M  V30 8 1 8 9
M  V30 9 1 9 10 CFG=3
M  V30 10 1 9 11
M  V30 11 1 10 12
M  V30 12 1 10 13
M  V30 13 1 11 14
M  V30 14 1 11 15
M  V30 15 2 12 16
M  V30 16 2 13 17
M  V30 17 1 15 18
M  V30 18 1 15 19
M  V30 19 1 15 20
M  V30 20 1 6 7
M  V30 21 1 16 17
M  V30 END BOND
M  V30 BEGIN COLLECTION
M  V30 MDLV30/STEABS ATOMS=(1 9)
M  V30 END COLLECTION
M  V30 END CTAB
M  END
>  <Molecule Name>
Paclobutrazol

>  <Order (spectra)>
348

>  <NAME>
Paclobutrazol

>  <Molecular Formula>
C15H20N3OCl

>  <Monoisotopic Mass>
293.129489

>  <SMILES>
CC(C)(C)C([C@H](CC1=CC=C(C=C1)Cl)N2C=NC=N2)O

>  <InChI>
InChI=1S/C15H20ClN3O/c1-15(2,3)14(20)13(19-10-17-9-18-19)8-11-4-6-12(16)7-5-11/h4-7,9-10,13-14,20H,8H2,1-3H3/t13-,14?/m0/s1

>  <InChIKey>
RMOGWMIKYWRTKW-LSLKUGRBSA-N

>  <Kingdom>
Organic compounds

>  <Superclass>
Benzenoids

>  <Class>
Benzene and substituted derivatives

>  <Subclass>
Phenethylamines

>  <Parent Level 1>
Amphetamines and derivatives

>  <Parent Level 2>


>  <Parent Level 3>


>  <cLogP>
3.0606

>  <cLogS>
-3.029

>  <Druglikeness>
0.71768

>  <NP-class probability>
0.15

>  <SmilesFragFp 3>


>  <MS_READY_SMILES>
-

>  <MS_READY_InChI>


>  <QSAR_READY_SMILES>
-

>  <QSAR_READY_InChI>


>  <DTXSID>
-

>  <DTXCID>
-

>  <CASRN>
-

>  <EXPOCAST_MEDIAN_EXPOSURE_PREDICTION_MG/KG-BW/DAY>
-

>  <BIOCONCENTRATION_FACTOR_TEST_PRED>
-

>  <BOILING_POINT_DEGC_TEST_PRED>
-

>  <48HR_DAPHNIA_LC50_MOL/L_TEST_PRED>
-

>  <DENSITY_G/CM^3_TEST_PRED>
-

>  <DEVTOX_TEST_PRED>
-

>  <96HR_FATHEAD_MINNOW_MOL/L_TEST_PRED>
-

>  <FLASH_POINT_DEGC_TEST_PRED>
-

>  <MELTING_POINT_DEGC_TEST_PRED>
-

>  <AMES_MUTAGENICITY_TEST_PRED>
-

>  <ORAL_RAT_LD50_MOL/KG_TEST_PRED>
-

>  <SURFACE_TENSION_DYN/CM_TEST_PRED>
-

>  <THERMAL_CONDUCTIVITY_MW/(M*K)_TEST_PRED>
-

>  <TETRAHYMENA_PYRIFORMIS_IGC50_MOL/L_TEST_PRED>
-

>  <VISCOSITY_CP_CP_TEST_PRED>
-

>  <VAPOR_PRESSURE_MMHG_TEST_PRED>
-

>  <WATER_SOLUBILITY_MOL/L_TEST_PRED>
-

>  <ATMOSPHERIC_HYDROXYLATION_RATE_(AOH)_CM3/MOLECULE*SEC_OPERA_PRED>
-

>  <BIOCONCENTRATION_FACTOR_OPERA_PRED>
-

>  <BIODEGRADATION_HALF_LIFE_DAYS_DAYS_OPERA_PRED>
-

>  <BOILING_POINT_DEGC_OPERA_PRED>
-

>  <HENRYS_LAW_ATM-M3/MOLE_OPERA_PRED>
-

>  <OPERA_KM_DAYS_OPERA_PRED>
-

>  <OCTANOL_AIR_PARTITION_COEFF_LOGKOA_OPERA_PRED>
-

>  <SOIL_ADSORPTION_COEFFICIENT_KOC_L/KG_OPERA_PRED>
-

>  <OCTANOL_WATER_PARTITION_LOGP_OPERA_PRED>
-

>  <MELTING_POINT_DEGC_OPERA_PRED>
-

>  <VAPOR_PRESSURE_MMHG_OPERA_PRED>
-

>  <WATER_SOLUBILITY_MOL/L_OPERA_PRED>
-

>  <Shape Index>
0.5

>  <Molecular Flexibility>
0.59529

>  <Molecular Complexity>
0.74025

>  <Electronegative Atoms>
5

>  <Stereo Centers>
2

>  <Rotatable Bonds>
5

>  <Rings Closures>
2

>  <Aromatic Rings>
2

>  <Aromatic Atoms>
11

>  <Amides>
0

>  <Amines>
0

>  <Aromatic Nitrogens>
3

>  <Shape Index 2>
0.5

>  <Molecular Flexibility 2>
0.59529

>  <Molecular Complexity 2>
0.74025

>  <Non-C/H Atoms>
5

>  <Electronegative Atoms 2>
5

>  <Stereo Centers 2>
2

>  <Rotatable Bonds 2>
5

>  <Rings Closures 2>
2

>  <Aromatic Rings 2>
2

>  <Aromatic Atoms 2>
11

>  <sp3-Atoms>
8

>  <Amides 2>
0

>  <Amines 2>
0

>  <Aromatic Nitrogens 2>
3

>  <Basic Nitrogens>
0

$$$$
Penconazole
Actelion Java MolfileCreator 2.0

  0  0  0  0  0  0              0 V3000
M  V30 BEGIN CTAB
M  V30 COUNTS 18 19 0 0 0
M  V30 BEGIN ATOM
M  V30 1 Cl 0.0 0.0 0.0 0
M  V30 2 C 1.2897 0.7572 0.0 0
M  V30 3 C 2.5795 0.0236 0.0 0
M  V30 4 C 1.2779 2.2718 0.0 0
M  V30 5 C 3.8692 0.7809 0.0 0
M  V30 6 C 2.5676 -1.4672 0.0 0 CFG=2
M  V30 7 C 2.5676 3.0409 0.0 0
M  V30 8 C 3.8574 2.2955 0.0 0
M  V30 9 C 3.8574 -2.2008 0.0 0
M  V30 10 C 1.2542 -2.2008 0.0 0
M  V30 11 Cl 2.5558 4.5555 0.0 0
M  V30 12 N 5.1471 -1.4435 0.0 0
M  V30 13 C -0.0591 -1.4435 0.0 0
M  V30 14 N 6.5079 -2.047 0.0 0
M  V30 15 C 5.2891 0.0591 0.0 0
M  V30 16 C -1.3725 -2.1771 0.0 0
M  V30 17 C 7.5018 -0.9229 0.0 0
M  V30 18 N 6.7445 0.3786 0.0 0
M  V30 END ATOM
M  V30 BEGIN BOND
M  V30 1 1 1 2
M  V30 2 2 2 3
M  V30 3 1 2 4
M  V30 4 1 3 5
M  V30 5 1 3 6
M  V30 6 2 4 7
M  V30 7 2 5 8
M  V30 8 1 6 9 CFG=3
M  V30 9 1 6 10
M  V30 10 1 7 11
M  V30 11 1 9 12
M  V30 12 1 10 13
M  V30 13 1 12 14
M  V30 14 1 12 15
M  V30 15 1 13 16
M  V30 16 2 14 17
M  V30 17 2 15 18
M  V30 18 1 7 8
M  V30 19 1 17 18
M  V30 END BOND
M  V30 BEGIN COLLECTION
M  V30 MDLV30/STERAC1 ATOMS=(1 6)
M  V30 END COLLECTION
M  V30 END CTAB
M  END
>  <Molecule Name>
Penconazole

>  <Order (spectra)>
349

>  <NAME>
Penconazole

>  <Molecular Formula>
C13H15N3Cl2

>  <Monoisotopic Mass>
283.064301

>  <SMILES>
CCCC(CN1C=NC=N1)C1=C(Cl)C=C(Cl)C=C1

>  <InChI>
InChI=1S/C13H15Cl2N3/c1-2-3-10(7-18-9-16-8-17-18)12-5-4-11(14)6-13(12)15/h4-6,8-10H,2-3,7H2,1H3/t10-/m0/s1

>  <InChIKey>
WKBPZYKAUNRMKP-UHFFFAOYSA-N

>  <Kingdom>
Organic compounds

>  <Superclass>
Benzenoids

>  <Class>
Benzene and substituted derivatives

>  <Subclass>
Halobenzenes

>  <Parent Level 1>
Chlorobenzenes

>  <Parent Level 2>
Dichlorobenzenes

>  <Parent Level 3>


>  <cLogP>
3.8444

>  <cLogS>
-4.28

>  <Druglikeness>
2.0352

>  <NP-class probability>
0

>  <SmilesFragFp 3>


>  <MS_READY_SMILES>
CCCC(CN1C=NC=N1)C1=C(Cl)C=C(Cl)C=C1

>  <MS_READY_InChI>
InChI=1S/C13H15Cl2N3/c1-2-3-10(7-18-9-16-8-17-18)12-5-4-11(14)6-13(12)15/h4-6,8-10H,2-3,7H2,1H3/t10-/m0/s1

>  <QSAR_READY_SMILES>
CCCC(CN1C=NC=N1)C1=C(Cl)C=C(Cl)C=C1

>  <QSAR_READY_InChI>
InChI=1S/C13H15Cl2N3/c1-2-3-10(7-18-9-16-8-17-18)12-5-4-11(14)6-13(12)15/h4-6,8-10H,2-3,7H2,1H3/t10-/m0/s1

>  <DTXSID>
DTXSID8042260

>  <DTXCID>
DTXCID6022260

>  <CASRN>
66246-88-6

>  <EXPOCAST_MEDIAN_EXPOSURE_PREDICTION_MG/KG-BW/DAY>
4.66E-07

>  <BIOCONCENTRATION_FACTOR_TEST_PRED>
121.619

>  <BOILING_POINT_DEGC_TEST_PRED>
342.774

>  <48HR_DAPHNIA_LC50_MOL/L_TEST_PRED>
2.19E-05

>  <DENSITY_G/CM^3_TEST_PRED>
1.212

>  <DEVTOX_TEST_PRED>
0.505

>  <96HR_FATHEAD_MINNOW_MOL/L_TEST_PRED>
4.45E-06

>  <FLASH_POINT_DEGC_TEST_PRED>
195.536

>  <MELTING_POINT_DEGC_TEST_PRED>
89.655

>  <AMES_MUTAGENICITY_TEST_PRED>
0.358

>  <ORAL_RAT_LD50_MOL/KG_TEST_PRED>
0.00685488

>  <SURFACE_TENSION_DYN/CM_TEST_PRED>
-

>  <THERMAL_CONDUCTIVITY_MW/(M*K)_TEST_PRED>
-

>  <TETRAHYMENA_PYRIFORMIS_IGC50_MOL/L_TEST_PRED>
-

>  <VISCOSITY_CP_CP_TEST_PRED>
-

>  <VAPOR_PRESSURE_MMHG_TEST_PRED>
3.09E-07

>  <WATER_SOLUBILITY_MOL/L_TEST_PRED>
7.38E-05

>  <ATMOSPHERIC_HYDROXYLATION_RATE_(AOH)_CM3/MOLECULE*SEC_OPERA_PRED>
1.67E-11

>  <BIOCONCENTRATION_FACTOR_OPERA_PRED>
55.3332

>  <BIODEGRADATION_HALF_LIFE_DAYS_DAYS_OPERA_PRED>
3.35553

>  <BOILING_POINT_DEGC_OPERA_PRED>
317.446

>  <HENRYS_LAW_ATM-M3/MOLE_OPERA_PRED>
4.11E-05

>  <OPERA_KM_DAYS_OPERA_PRED>
15.4708

>  <OCTANOL_AIR_PARTITION_COEFF_LOGKOA_OPERA_PRED>
8.62039

>  <SOIL_ADSORPTION_COEFFICIENT_KOC_L/KG_OPERA_PRED>
907.911

>  <OCTANOL_WATER_PARTITION_LOGP_OPERA_PRED>
4.4311

>  <MELTING_POINT_DEGC_OPERA_PRED>
58.4876

>  <VAPOR_PRESSURE_MMHG_OPERA_PRED>
2.77E-06

>  <WATER_SOLUBILITY_MOL/L_OPERA_PRED>
0.000258115

>  <Shape Index>
0.55556

>  <Molecular Flexibility>
0.34587

>  <Molecular Complexity>
0.73452

>  <Electronegative Atoms>
5

>  <Stereo Centers>
1

>  <Rotatable Bonds>
5

>  <Rings Closures>
2

>  <Aromatic Rings>
2

>  <Aromatic Atoms>
11

>  <Amides>
0

>  <Amines>
0

>  <Aromatic Nitrogens>
3

>  <Shape Index 2>
0.55556

>  <Molecular Flexibility 2>
0.34587

>  <Molecular Complexity 2>
0.73452

>  <Non-C/H Atoms>
5

>  <Electronegative Atoms 2>
5

>  <Stereo Centers 2>
1

>  <Rotatable Bonds 2>
5

>  <Rings Closures 2>
2

>  <Aromatic Rings 2>
2

>  <Aromatic Atoms 2>
11

>  <sp3-Atoms>
5

>  <Amides 2>
0

>  <Amines 2>
0

>  <Aromatic Nitrogens 2>
3

>  <Basic Nitrogens>
0

$$$$
Propiconazole
Actelion Java MolfileCreator 2.0

  0  0  0  0  0  0              0 V3000
M  V30 BEGIN CTAB
M  V30 COUNTS 22 24 0 0 0
M  V30 BEGIN ATOM
M  V30 1 Cl 0.0 0.0 0.0 0
M  V30 2 C 0.5284 1.409 0.0 0
M  V30 3 C 1.9961 1.6556 0.0 0
M  V30 4 C -0.4227 2.5832 0.0 0
M  V30 5 C 2.5245 3.0647 0.0 0
M  V30 6 C 2.9238 0.5049 0.0 0
M  V30 7 C 0.1056 3.9923 0.0 0
M  V30 8 C 1.5734 4.2389 0.0 0
M  V30 9 O 1.4442 0.1996 0.0 0
M  V30 10 O 3.6635 -0.7867 0.0 0
M  V30 11 C 3.5226 1.8905 0.0 0
M  V30 12 Cl -0.8454 5.1665 0.0 0
M  V30 13 C 1.2799 -1.2799 0.0 0
M  V30 14 C 2.6537 -1.8905 0.0 0
M  V30 15 N 5.0022 2.0548 0.0 0
M  V30 16 C -0.0352 -2.0196 0.0 0
M  V30 17 N 5.9885 0.9511 0.0 0
M  V30 18 C 5.7419 3.37 0.0 0
M  V30 19 C -1.3503 -1.2564 0.0 0
M  V30 20 C 7.3506 1.5734 0.0 0
M  V30 21 N 7.198 3.0647 0.0 0
M  V30 22 C -2.6654 -1.9961 0.0 0
M  V30 END ATOM
M  V30 BEGIN BOND
M  V30 1 1 1 2
M  V30 2 2 2 3
M  V30 3 1 2 4
M  V30 4 1 3 5
M  V30 5 1 3 6
M  V30 6 2 4 7
M  V30 7 2 5 8
M  V30 8 1 6 9
M  V30 9 1 6 10
M  V30 10 1 6 11
M  V30 11 1 7 12
M  V30 12 1 9 13
M  V30 13 1 10 14
M  V30 14 1 11 15
M  V30 15 1 13 16
M  V30 16 1 15 17
M  V30 17 1 15 18
M  V30 18 1 16 19
M  V30 19 2 17 20
M  V30 20 2 18 21
M  V30 21 1 19 22
M  V30 22 1 7 8
M  V30 23 1 13 14
M  V30 24 1 20 21
M  V30 END BOND
M  V30 END CTAB
M  END
>  <Molecule Name>
Propiconazole

>  <Order (spectra)>
350

>  <NAME>
Propiconazole

>  <Molecular Formula>
C15H17N3O2Cl2

>  <Monoisotopic Mass>
341.069781

>  <SMILES>
CCCC1COC(CN2C=NC=N2)(O1)C1=C(Cl)C=C(Cl)C=C1

>  <InChI>
InChI=1S/C15H17Cl2N3O2/c1-2-3-12-7-21-15(22-12,8-20-10-18-9-19-20)13-5-4-11(16)6-14(13)17/h4-6,9-10,12H,2-3,7-8H2,1H3

>  <InChIKey>
STJLVHWMYQXCPB-UHFFFAOYSA-N

>  <Kingdom>
Organic compounds

>  <Superclass>
Benzenoids

>  <Class>
Benzene and substituted derivatives

>  <Subclass>
Halobenzenes

>  <Parent Level 1>
Chlorobenzenes

>  <Parent Level 2>
Dichlorobenzenes

>  <Parent Level 3>


>  <cLogP>
3.0645

>  <cLogS>
-3.364

>  <Druglikeness>
1.8633

>  <NP-class probability>
0.03

>  <SmilesFragFp 3>


>  <MS_READY_SMILES>
CCCC1COC(CN2C=NC=N2)(O1)C1=C(Cl)C=C(Cl)C=C1

>  <MS_READY_InChI>
InChI=1S/C15H17Cl2N3O2/c1-2-3-12-7-21-15(22-12,8-20-10-18-9-19-20)13-5-4-11(16)6-14(13)17/h4-6,9-10,12H,2-3,7-8H2,1H3

>  <QSAR_READY_SMILES>
CCCC1COC(CN2C=NC=N2)(O1)C1=C(Cl)C=C(Cl)C=C1

>  <QSAR_READY_InChI>
InChI=1S/C15H17Cl2N3O2/c1-2-3-12-7-21-15(22-12,8-20-10-18-9-19-20)13-5-4-11(16)6-14(13)17/h4-6,9-10,12H,2-3,7-8H2,1H3

>  <DTXSID>
DTXSID8024280

>  <DTXCID>
DTXCID204280

>  <CASRN>
60207-90-1

>  <EXPOCAST_MEDIAN_EXPOSURE_PREDICTION_MG/KG-BW/DAY>
1.33E-06

>  <BIOCONCENTRATION_FACTOR_TEST_PRED>
102.094

>  <BOILING_POINT_DEGC_TEST_PRED>
366.386

>  <48HR_DAPHNIA_LC50_MOL/L_TEST_PRED>
3.37E-05

>  <DENSITY_G/CM^3_TEST_PRED>
1.383

>  <DEVTOX_TEST_PRED>
0.484

>  <96HR_FATHEAD_MINNOW_MOL/L_TEST_PRED>
3.61E-05

>  <FLASH_POINT_DEGC_TEST_PRED>
253.742

>  <MELTING_POINT_DEGC_TEST_PRED>
91.615

>  <AMES_MUTAGENICITY_TEST_PRED>
0.333

>  <ORAL_RAT_LD50_MOL/KG_TEST_PRED>
0.00405509

>  <SURFACE_TENSION_DYN/CM_TEST_PRED>
-

>  <THERMAL_CONDUCTIVITY_MW/(M*K)_TEST_PRED>
-

>  <TETRAHYMENA_PYRIFORMIS_IGC50_MOL/L_TEST_PRED>
-

>  <VISCOSITY_CP_CP_TEST_PRED>
-

>  <VAPOR_PRESSURE_MMHG_TEST_PRED>
7.08E-08

>  <WATER_SOLUBILITY_MOL/L_TEST_PRED>
0.000192309

>  <ATMOSPHERIC_HYDROXYLATION_RATE_(AOH)_CM3/MOLECULE*SEC_OPERA_PRED>
1.67E-11

>  <BIOCONCENTRATION_FACTOR_OPERA_PRED>
45.7486

>  <BIODEGRADATION_HALF_LIFE_DAYS_DAYS_OPERA_PRED>
4.24505

>  <BOILING_POINT_DEGC_OPERA_PRED>
350.142

>  <HENRYS_LAW_ATM-M3/MOLE_OPERA_PRED>
3.83E-06

>  <OPERA_KM_DAYS_OPERA_PRED>
5.00852

>  <OCTANOL_AIR_PARTITION_COEFF_LOGKOA_OPERA_PRED>
10.203

>  <SOIL_ADSORPTION_COEFFICIENT_KOC_L/KG_OPERA_PRED>
2451.91

>  <OCTANOL_WATER_PARTITION_LOGP_OPERA_PRED>
3.71704

>  <MELTING_POINT_DEGC_OPERA_PRED>
82.618

>  <VAPOR_PRESSURE_MMHG_OPERA_PRED>
4.20E-07

>  <WATER_SOLUBILITY_MOL/L_OPERA_PRED>
0.000355398

>  <Shape Index>
0.5

>  <Molecular Flexibility>
0.44353

>  <Molecular Complexity>
0.83685

>  <Electronegative Atoms>
7

>  <Stereo Centers>
2

>  <Rotatable Bonds>
5

>  <Rings Closures>
3

>  <Aromatic Rings>
2

>  <Aromatic Atoms>
11

>  <Amides>
0

>  <Amines>
0

>  <Aromatic Nitrogens>
3

>  <Shape Index 2>
0.5

>  <Molecular Flexibility 2>
0.44353

>  <Molecular Complexity 2>
0.83685

>  <Non-C/H Atoms>
7

>  <Electronegative Atoms 2>
7

>  <Stereo Centers 2>
2

>  <Rotatable Bonds 2>
5

>  <Rings Closures 2>
3

>  <Aromatic Rings 2>
2

>  <Aromatic Atoms 2>
11

>  <sp3-Atoms>
9

>  <Amides 2>
0

>  <Amines 2>
0

>  <Aromatic Nitrogens 2>
3

>  <Basic Nitrogens>
0

$$$$
Tebuconazole
Actelion Java MolfileCreator 2.0

  0  0  0  0  0  0              0 V3000
M  V30 BEGIN CTAB
M  V30 COUNTS 21 22 0 0 0
M  V30 BEGIN ATOM
M  V30 1 Cl 0.0 0.0 0.0 0
M  V30 2 C -1.3104 -0.7437 0.0 0
M  V30 3 C -1.3222 -2.2313 0.0 0
M  V30 4 C -2.6209 0.0118 0.0 0
M  V30 5 C -2.6327 -2.9751 0.0 0
M  V30 6 C -3.9314 -0.7319 0.0 0
M  V30 7 C -3.9432 -2.2195 0.0 0
M  V30 8 C -5.2537 -2.9633 0.0 0
M  V30 9 C -5.2655 -4.4509 0.0 0
M  V30 10 C -6.576 -5.1946 0.0 0 CFG=1
M  V30 11 O -6.5878 -6.6822 0.0 0
M  V30 12 C -5.2891 -5.9266 0.0 0
M  V30 13 C -7.8864 -4.4391 0.0 0
M  V30 14 C -4.5453 -4.6161 0.0 0
M  V30 15 C -4.0022 -6.6704 0.0 0
M  V30 16 C -6.0447 -7.2135 0.0 0
M  V30 17 N -9.1969 -5.1828 0.0 0
M  V30 18 N -10.5782 -4.5571 0.0 0
M  V30 19 C -9.3622 -6.6586 0.0 0
M  V30 20 C -11.5936 -5.6551 0.0 0
M  V30 21 N -10.838 -6.9538 0.0 0
M  V30 END ATOM
M  V30 BEGIN BOND
M  V30 1 1 1 2
M  V30 2 2 2 3
M  V30 3 1 2 4
M  V30 4 1 3 5
M  V30 5 2 4 6
M  V30 6 2 5 7
M  V30 7 1 7 8
M  V30 8 1 8 9
M  V30 9 1 9 10
M  V30 10 1 10 11
M  V30 11 1 10 12 CFG=1
M  V30 12 1 10 13
M  V30 13 1 12 14
M  V30 14 1 12 15
M  V30 15 1 12 16
M  V30 16 1 13 17
M  V30 17 1 17 18
M  V30 18 1 17 19
M  V30 19 2 18 20
M  V30 20 2 19 21
M  V30 21 1 6 7
M  V30 22 1 20 21
M  V30 END BOND
M  V30 BEGIN COLLECTION
M  V30 MDLV30/STERAC1 ATOMS=(1 10)
M  V30 END COLLECTION
M  V30 END CTAB
M  END
>  <Molecule Name>
Tebuconazole

>  <Order (spectra)>
351

>  <NAME>
Tebuconazole

>  <Molecular Formula>
C16H22N3OCl

>  <Monoisotopic Mass>
307.145139

>  <SMILES>
CC(C)(C)C(O)(CCC1=CC=C(Cl)C=C1)CN1C=NC=N1

>  <InChI>
InChI=1S/C16H22ClN3O/c1-15(2,3)16(21,10-20-12-18-11-19-20)9-8-13-4-6-14(17)7-5-13/h4-7,11-12,21H,8-10H2,1-3H3/t16-/m0/s1

>  <InChIKey>
PXMNMQRDXWABCY-UHFFFAOYSA-N

>  <Kingdom>
Organic compounds

>  <Superclass>
Benzenoids

>  <Class>
Benzene and substituted derivatives

>  <Subclass>
Phenylbutylamines

>  <Parent Level 1>
Phenylbutylamines

>  <Parent Level 2>


>  <Parent Level 3>


>  <cLogP>
3.4082

>  <cLogS>
-3.493

>  <Druglikeness>
0.72079

>  <NP-class probability>
0.09

>  <SmilesFragFp 3>


>  <MS_READY_SMILES>
CC(C)(C)C(O)(CCC1=CC=C(Cl)C=C1)CN1C=NC=N1

>  <MS_READY_InChI>
InChI=1S/C16H22ClN3O/c1-15(2,3)16(21,10-20-12-18-11-19-20)9-8-13-4-6-14(17)7-5-13/h4-7,11-12,21H,8-10H2,1-3H3/t16-/m0/s1

>  <QSAR_READY_SMILES>
CC(C)(C)C(O)(CCC1=CC=C(Cl)C=C1)CN1C=NC=N1

>  <QSAR_READY_InChI>
InChI=1S/C16H22ClN3O/c1-15(2,3)16(21,10-20-12-18-11-19-20)9-8-13-4-6-14(17)7-5-13/h4-7,11-12,21H,8-10H2,1-3H3/t16-/m0/s1

>  <DTXSID>
DTXSID9032113

>  <DTXCID>
DTXCID7012113

>  <CASRN>
107534-96-3

>  <EXPOCAST_MEDIAN_EXPOSURE_PREDICTION_MG/KG-BW/DAY>
2.34E-07

>  <BIOCONCENTRATION_FACTOR_TEST_PRED>
49.204

>  <BOILING_POINT_DEGC_TEST_PRED>
344.862

>  <48HR_DAPHNIA_LC50_MOL/L_TEST_PRED>
3.13E-05

>  <DENSITY_G/CM^3_TEST_PRED>
1.249

>  <DEVTOX_TEST_PRED>
0.483

>  <96HR_FATHEAD_MINNOW_MOL/L_TEST_PRED>
1.32E-05

>  <FLASH_POINT_DEGC_TEST_PRED>
237.471

>  <MELTING_POINT_DEGC_TEST_PRED>
113.611

>  <AMES_MUTAGENICITY_TEST_PRED>
0.499

>  <ORAL_RAT_LD50_MOL/KG_TEST_PRED>
0.0101391

>  <SURFACE_TENSION_DYN/CM_TEST_PRED>
-

>  <THERMAL_CONDUCTIVITY_MW/(M*K)_TEST_PRED>
-

>  <TETRAHYMENA_PYRIFORMIS_IGC50_MOL/L_TEST_PRED>
-

>  <VISCOSITY_CP_CP_TEST_PRED>
-

>  <VAPOR_PRESSURE_MMHG_TEST_PRED>
9.29E-08

>  <WATER_SOLUBILITY_MOL/L_TEST_PRED>
8.93E-05

>  <ATMOSPHERIC_HYDROXYLATION_RATE_(AOH)_CM3/MOLECULE*SEC_OPERA_PRED>
2.31E-11

>  <BIOCONCENTRATION_FACTOR_OPERA_PRED>
243.765

>  <BIODEGRADATION_HALF_LIFE_DAYS_DAYS_OPERA_PRED>
3.17728

>  <BOILING_POINT_DEGC_OPERA_PRED>
321.733

>  <HENRYS_LAW_ATM-M3/MOLE_OPERA_PRED>
3.10E-07

>  <OPERA_KM_DAYS_OPERA_PRED>
5.87665

>  <OCTANOL_AIR_PARTITION_COEFF_LOGKOA_OPERA_PRED>
10.6451

>  <SOIL_ADSORPTION_COEFFICIENT_KOC_L/KG_OPERA_PRED>
994.153

>  <OCTANOL_WATER_PARTITION_LOGP_OPERA_PRED>
3.69972

>  <MELTING_POINT_DEGC_OPERA_PRED>
102.495

>  <VAPOR_PRESSURE_MMHG_OPERA_PRED>
1.29E-08

>  <WATER_SOLUBILITY_MOL/L_OPERA_PRED>
0.000116847

>  <Shape Index>
0.57143

>  <Molecular Flexibility>
0.57594

>  <Molecular Complexity>
0.70898

>  <Electronegative Atoms>
5

>  <Stereo Centers>
1

>  <Rotatable Bonds>
6

>  <Rings Closures>
2

>  <Aromatic Rings>
2

>  <Aromatic Atoms>
11

>  <Amides>
0

>  <Amines>
0

>  <Aromatic Nitrogens>
3

>  <Shape Index 2>
0.57143

>  <Molecular Flexibility 2>
0.57594

>  <Molecular Complexity 2>
0.70898

>  <Non-C/H Atoms>
5

>  <Electronegative Atoms 2>
5

>  <Stereo Centers 2>
1

>  <Rotatable Bonds 2>
6

>  <Rings Closures 2>
2

>  <Aromatic Rings 2>
2

>  <Aromatic Atoms 2>
11

>  <sp3-Atoms>
9

>  <Amides 2>
0

>  <Amines 2>
0

>  <Aromatic Nitrogens 2>
3

>  <Basic Nitrogens>
0

$$$$
Tetraconazole
Actelion Java MolfileCreator 2.0

  0  0  0  0  0  0              0 V3000
M  V30 BEGIN CTAB
M  V30 COUNTS 23 24 0 0 0
M  V30 BEGIN ATOM
M  V30 1 Cl 0.0 0.0 0.0 0
M  V30 2 C 1.2881 0.7563 0.0 0
M  V30 3 C 2.5763 0.0118 0.0 0
M  V30 4 C 1.2763 2.2691 0.0 0
M  V30 5 C 3.8645 0.7681 0.0 0
M  V30 6 C 2.5645 -1.4772 0.0 0 CFG=2
M  V30 7 C 2.5645 3.0254 0.0 0
M  V30 8 C 3.8527 2.2809 0.0 0
M  V30 9 C 1.2527 -2.2218 0.0 0
M  V30 10 C 3.8527 -2.2218 0.0 0
M  V30 11 Cl 2.5527 4.5382 0.0 0
M  V30 12 O -0.059 -1.4654 0.0 0
M  V30 13 N 5.1409 -1.4654 0.0 0
M  V30 14 C -1.3709 -2.21 0.0 0
M  V30 15 N 6.5 -2.0681 0.0 0
M  V30 16 C 5.2827 0.0354 0.0 0
M  V30 17 F -2.1272 -3.4982 0.0 0
M  V30 18 F -0.6263 -3.4982 0.0 0
M  V30 19 C -2.6827 -1.4536 0.0 0
M  V30 20 C 7.4927 -0.9454 0.0 0
M  V30 21 N 6.7364 0.3545 0.0 0
M  V30 22 F -2.6945 0.059 0.0 0
M  V30 23 F -3.9945 -2.1981 0.0 0
M  V30 END ATOM
M  V30 BEGIN BOND
M  V30 1 1 1 2
M  V30 2 2 2 3
M  V30 3 1 2 4
M  V30 4 1 3 5
M  V30 5 1 3 6
M  V30 6 2 4 7
M  V30 7 2 5 8
M  V30 8 1 6 9 CFG=1
M  V30 9 1 6 10
M  V30 10 1 7 11
M  V30 11 1 9 12
M  V30 12 1 10 13
M  V30 13 1 12 14
M  V30 14 1 13 15
M  V30 15 1 13 16
M  V30 16 1 14 17
M  V30 17 1 14 18
M  V30 18 1 14 19
M  V30 19 2 15 20
M  V30 20 2 16 21
M  V30 21 1 19 22
M  V30 22 1 19 23
M  V30 23 1 7 8
M  V30 24 1 20 21
M  V30 END BOND
M  V30 BEGIN COLLECTION
M  V30 MDLV30/STERAC1 ATOMS=(1 6)
M  V30 END COLLECTION
M  V30 END CTAB
M  END
>  <Molecule Name>
Tetraconazole

>  <Order (spectra)>
352

>  <NAME>
Tetraconazole

>  <Molecular Formula>
C13H11N3OCl2F4

>  <Monoisotopic Mass>
371.021528

>  <SMILES>
FC(F)C(F)(F)OCC(CN1C=NC=N1)C1=C(Cl)C=C(Cl)C=C1

>  <InChI>
InChI=1S/C13H11Cl2F4N3O/c14-9-1-2-10(11(15)3-9)8(4-22-7-20-6-21-22)5-23-13(18,19)12(16)17/h1-3,6-8,12H,4-5H2/t8-/m0/s1

>  <InChIKey>
LQDARGUHUSPFNL-UHFFFAOYSA-N

>  <Kingdom>
Organic compounds

>  <Superclass>
Benzenoids

>  <Class>
Benzene and substituted derivatives

>  <Subclass>
Halobenzenes

>  <Parent Level 1>
Chlorobenzenes

>  <Parent Level 2>
Dichlorobenzenes

>  <Parent Level 3>


>  <cLogP>
3.3208

>  <cLogS>
-4.797

>  <Druglikeness>
-8.1728

>  <NP-class probability>
0

>  <SmilesFragFp 3>


>  <MS_READY_SMILES>
FC(F)C(F)(F)OCC(CN1C=NC=N1)C1=C(Cl)C=C(Cl)C=C1

>  <MS_READY_InChI>
InChI=1S/C13H11Cl2F4N3O/c14-9-1-2-10(11(15)3-9)8(4-22-7-20-6-21-22)5-23-13(18,19)12(16)17/h1-3,6-8,12H,4-5H2/t8-/m0/s1

>  <QSAR_READY_SMILES>
FC(F)C(F)(F)OCC(CN1C=NC=N1)C1=C(Cl)C=C(Cl)C=C1

>  <QSAR_READY_InChI>
InChI=1S/C13H11Cl2F4N3O/c14-9-1-2-10(11(15)3-9)8(4-22-7-20-6-21-22)5-23-13(18,19)12(16)17/h1-3,6-8,12H,4-5H2/t8-/m0/s1

>  <DTXSID>
DTXSID8034956

>  <DTXCID>
DTXCID6014956

>  <CASRN>
112281-77-3

>  <EXPOCAST_MEDIAN_EXPOSURE_PREDICTION_MG/KG-BW/DAY>
3.92E-07

>  <BIOCONCENTRATION_FACTOR_TEST_PRED>
131.22

>  <BOILING_POINT_DEGC_TEST_PRED>
344.772

>  <48HR_DAPHNIA_LC50_MOL/L_TEST_PRED>
2.47E-05

>  <DENSITY_G/CM^3_TEST_PRED>
1.507

>  <DEVTOX_TEST_PRED>
0.626

>  <96HR_FATHEAD_MINNOW_MOL/L_TEST_PRED>
2.69E-06

>  <FLASH_POINT_DEGC_TEST_PRED>
242.328

>  <MELTING_POINT_DEGC_TEST_PRED>
60.427

>  <AMES_MUTAGENICITY_TEST_PRED>
0.138

>  <ORAL_RAT_LD50_MOL/KG_TEST_PRED>
-

>  <SURFACE_TENSION_DYN/CM_TEST_PRED>
-

>  <THERMAL_CONDUCTIVITY_MW/(M*K)_TEST_PRED>
-

>  <TETRAHYMENA_PYRIFORMIS_IGC50_MOL/L_TEST_PRED>
-

>  <VISCOSITY_CP_CP_TEST_PRED>
-

>  <VAPOR_PRESSURE_MMHG_TEST_PRED>
1.71E-07

>  <WATER_SOLUBILITY_MOL/L_TEST_PRED>
1.51E-05

>  <ATMOSPHERIC_HYDROXYLATION_RATE_(AOH)_CM3/MOLECULE*SEC_OPERA_PRED>
1.65E-11

>  <BIOCONCENTRATION_FACTOR_OPERA_PRED>
309.506

>  <BIODEGRADATION_HALF_LIFE_DAYS_DAYS_OPERA_PRED>
4.27457

>  <BOILING_POINT_DEGC_OPERA_PRED>
339.059

>  <HENRYS_LAW_ATM-M3/MOLE_OPERA_PRED>
2.53E-06

>  <OPERA_KM_DAYS_OPERA_PRED>
16.8987

>  <OCTANOL_AIR_PARTITION_COEFF_LOGKOA_OPERA_PRED>
8.21551

>  <SOIL_ADSORPTION_COEFFICIENT_KOC_L/KG_OPERA_PRED>
748.422

>  <OCTANOL_WATER_PARTITION_LOGP_OPERA_PRED>
3.55959

>  <MELTING_POINT_DEGC_OPERA_PRED>
6.10937

>  <VAPOR_PRESSURE_MMHG_OPERA_PRED>
1.35E-06

>  <WATER_SOLUBILITY_MOL/L_OPERA_PRED>
0.000416843

>  <Shape Index>
0.47826

>  <Molecular Flexibility>
0.45297

>  <Molecular Complexity>
0.76387

>  <Electronegative Atoms>
10

>  <Stereo Centers>
1

>  <Rotatable Bonds>
7

>  <Rings Closures>
2

>  <Aromatic Rings>
2

>  <Aromatic Atoms>
11

>  <Amides>
0

>  <Amines>
0

>  <Aromatic Nitrogens>
3

>  <Shape Index 2>
0.47826

>  <Molecular Flexibility 2>
0.45297

>  <Molecular Complexity 2>
0.76387

>  <Non-C/H Atoms>
10

>  <Electronegative Atoms 2>
10

>  <Stereo Centers 2>
1

>  <Rotatable Bonds 2>
7

>  <Rings Closures 2>
2

>  <Aromatic Rings 2>
2

>  <Aromatic Atoms 2>
11

>  <sp3-Atoms>
6

>  <Amides 2>
0

>  <Amines 2>
0

>  <Aromatic Nitrogens 2>
3

>  <Basic Nitrogens>
0

$$$$
Triflumizole
Actelion Java MolfileCreator 2.0

  0  0  0  0  0  0              0 V3000
M  V30 BEGIN CTAB
M  V30 COUNTS 23 24 0 0 0
M  V30 BEGIN ATOM
M  V30 1 Cl 0.0 0.0 0.0 0
M  V30 2 C -1.3057 -0.7411 0.0 0
M  V30 3 C -1.3175 -2.2233 0.0 0
M  V30 4 C -2.6115 0.0117 0.0 0
M  V30 5 C -2.6232 -2.9644 0.0 0
M  V30 6 C -3.9172 -0.7293 0.0 0
M  V30 7 C -3.929 -2.2115 0.0 0
M  V30 8 C -2.635 -4.4466 0.0 0
M  V30 9 N -5.2348 -2.9526 0.0 0
M  V30 10 F -4.1407 -4.4348 0.0 0
M  V30 11 F -2.6468 -5.9288 0.0 0
M  V30 12 F -1.1528 -4.4348 0.0 0
M  V30 13 C -6.5405 -2.1997 0.0 0
M  V30 14 N -6.5523 -0.694 0.0 0
M  V30 15 C -7.8463 -2.9409 0.0 0
M  V30 16 C -5.3524 0.1999 0.0 0
M  V30 17 C -7.7757 0.1999 0.0 0
M  V30 18 O -9.1521 -2.188 0.0 0
M  V30 19 N -5.8229 1.6351 0.0 0
M  V30 20 C -7.3287 1.6351 0.0 0
M  V30 21 C -10.4578 -2.9291 0.0 0
M  V30 22 C -11.7636 -2.1762 0.0 0
M  V30 23 C -13.0693 -2.9173 0.0 0
M  V30 END ATOM
M  V30 BEGIN BOND
M  V30 1 1 1 2
M  V30 2 2 2 3
M  V30 3 1 2 4
M  V30 4 1 3 5
M  V30 5 2 4 6
M  V30 6 2 5 7
M  V30 7 1 5 8
M  V30 8 1 7 9
M  V30 9 1 8 10
M  V30 10 1 8 11
M  V30 11 1 8 12
M  V30 12 2 9 13 CFG=2
M  V30 13 1 13 14
M  V30 14 1 13 15
M  V30 15 1 14 16
M  V30 16 1 14 17
M  V30 17 1 15 18
M  V30 18 2 16 19
M  V30 19 2 17 20
M  V30 20 1 18 21
M  V30 21 1 21 22
M  V30 22 1 22 23
M  V30 23 1 6 7
M  V30 24 1 19 20
M  V30 END BOND
M  V30 END CTAB
M  END
>  <Molecule Name>
Triflumizole

>  <Order (spectra)>
355

>  <NAME>
Triflumizole

>  <Molecular Formula>
C15H15N3OClF3

>  <Monoisotopic Mass>
345.085573

>  <SMILES>
CCCOCC(=NC1=C(C=C(C=C1)Cl)C(F)(F)F)N2C=CN=C2

>  <InChI>
InChI=1S/C15H15ClF3N3O/c1-2-7-23-9-14(22-6-5-20-10-22)21-13-4-3-11(16)8-12(13)15(17,18)19/h3-6,8,10H,2,7,9H2,1H3

>  <InChIKey>
HSMVPDGQOIQYSR-UHFFFAOYSA-N

>  <Kingdom>
Organic compounds

>  <Superclass>
Benzenoids

>  <Class>
Benzene and substituted derivatives

>  <Subclass>
Trifluoromethylbenzenes

>  <Parent Level 1>
Trifluoromethylbenzenes

>  <Parent Level 2>


>  <Parent Level 3>


>  <cLogP>
3.2385

>  <cLogS>
-3.437

>  <Druglikeness>
-7.5585

>  <NP-class probability>
0.03

>  <SmilesFragFp 3>


>  <MS_READY_SMILES>
-

>  <MS_READY_InChI>


>  <QSAR_READY_SMILES>
-

>  <QSAR_READY_InChI>


>  <DTXSID>
-

>  <DTXCID>
-

>  <CASRN>
-

>  <EXPOCAST_MEDIAN_EXPOSURE_PREDICTION_MG/KG-BW/DAY>
-

>  <BIOCONCENTRATION_FACTOR_TEST_PRED>
-

>  <BOILING_POINT_DEGC_TEST_PRED>
-

>  <48HR_DAPHNIA_LC50_MOL/L_TEST_PRED>
-

>  <DENSITY_G/CM^3_TEST_PRED>
-

>  <DEVTOX_TEST_PRED>
-

>  <96HR_FATHEAD_MINNOW_MOL/L_TEST_PRED>
-

>  <FLASH_POINT_DEGC_TEST_PRED>
-

>  <MELTING_POINT_DEGC_TEST_PRED>
-

>  <AMES_MUTAGENICITY_TEST_PRED>
-

>  <ORAL_RAT_LD50_MOL/KG_TEST_PRED>
-

>  <SURFACE_TENSION_DYN/CM_TEST_PRED>
-

>  <THERMAL_CONDUCTIVITY_MW/(M*K)_TEST_PRED>
-

>  <TETRAHYMENA_PYRIFORMIS_IGC50_MOL/L_TEST_PRED>
-

>  <VISCOSITY_CP_CP_TEST_PRED>
-

>  <VAPOR_PRESSURE_MMHG_TEST_PRED>
-

>  <WATER_SOLUBILITY_MOL/L_TEST_PRED>
-

>  <ATMOSPHERIC_HYDROXYLATION_RATE_(AOH)_CM3/MOLECULE*SEC_OPERA_PRED>
-

>  <BIOCONCENTRATION_FACTOR_OPERA_PRED>
-

>  <BIODEGRADATION_HALF_LIFE_DAYS_DAYS_OPERA_PRED>
-

>  <BOILING_POINT_DEGC_OPERA_PRED>
-

>  <HENRYS_LAW_ATM-M3/MOLE_OPERA_PRED>
-

>  <OPERA_KM_DAYS_OPERA_PRED>
-

>  <OCTANOL_AIR_PARTITION_COEFF_LOGKOA_OPERA_PRED>
-

>  <SOIL_ADSORPTION_COEFFICIENT_KOC_L/KG_OPERA_PRED>
-

>  <OCTANOL_WATER_PARTITION_LOGP_OPERA_PRED>
-

>  <MELTING_POINT_DEGC_OPERA_PRED>
-

>  <VAPOR_PRESSURE_MMHG_OPERA_PRED>
-

>  <WATER_SOLUBILITY_MOL/L_OPERA_PRED>
-

>  <Shape Index>
0.52174

>  <Molecular Flexibility>
0.48342

>  <Molecular Complexity>
0.75761

>  <Electronegative Atoms>
8

>  <Stereo Centers>
0

>  <Rotatable Bonds>
7

>  <Rings Closures>
2

>  <Aromatic Rings>
2

>  <Aromatic Atoms>
11

>  <Amides>
0

>  <Amines>
0

>  <Aromatic Nitrogens>
2

>  <Shape Index 2>
0.52174

>  <Molecular Flexibility 2>
0.48342

>  <Molecular Complexity 2>
0.75761

>  <Non-C/H Atoms>
8

>  <Electronegative Atoms 2>
8

>  <Stereo Centers 2>
0

>  <Rotatable Bonds 2>
7

>  <Rings Closures 2>
2

>  <Aromatic Rings 2>
2

>  <Aromatic Atoms 2>
11

>  <sp3-Atoms>
6

>  <Amides 2>
0

>  <Amines 2>
0

>  <Aromatic Nitrogens 2>
2

>  <Basic Nitrogens>
1

$$$$
Triticonazole
Actelion Java MolfileCreator 2.0

  0  0  0  0  0  0              0 V3000
M  V30 BEGIN CTAB
M  V30 COUNTS 22 24 0 0 0
M  V30 BEGIN ATOM
M  V30 1 Cl 0.0 0.0 0.0 0
M  V30 2 C -1.3061 0.753 0.0 0
M  V30 3 C -1.3178 2.2592 0.0 0
M  V30 4 C -2.6122 0.0117 0.0 0
M  V30 5 C -2.6239 3.0122 0.0 0
M  V30 6 C -3.9183 0.7648 0.0 0
M  V30 7 C -3.9301 2.2709 0.0 0
M  V30 8 C -5.2362 3.024 0.0 0
M  V30 9 C -6.5423 2.2827 0.0 0
M  V30 10 C -7.919 2.9063 0.0 0 CFG=1
M  V30 11 C -6.707 0.8119 0.0 0
M  V30 12 O -6.7658 3.8595 0.0 0
M  V30 13 C -8.9309 1.812 0.0 0
M  V30 14 C -8.2367 4.3772 0.0 0
M  V30 15 C -8.1779 0.5177 0.0 0
M  V30 16 C -10.1547 2.7063 0.0 0
M  V30 17 C -10.3076 1.2119 0.0 0
M  V30 18 N -7.1424 5.3891 0.0 0
M  V30 19 N -5.6951 5.095 0.0 0
M  V30 20 C -7.3071 6.8835 0.0 0
M  V30 21 C -4.9538 6.4011 0.0 0
M  V30 22 N -5.9539 7.5071 0.0 0
M  V30 END ATOM
M  V30 BEGIN BOND
M  V30 1 1 1 2
M  V30 2 2 2 3
M  V30 3 1 2 4
M  V30 4 1 3 5
M  V30 5 2 4 6
M  V30 6 2 5 7
M  V30 7 1 7 8
M  V30 8 2 8 9
M  V30 9 1 9 10
M  V30 10 1 9 11
M  V30 11 1 10 12 CFG=3
M  V30 12 1 10 13
M  V30 13 1 10 14
M  V30 14 1 11 15
M  V30 15 1 13 16
M  V30 16 1 13 17
M  V30 17 1 14 18
M  V30 18 1 18 19
M  V30 19 1 18 20
M  V30 20 2 19 21
M  V30 21 2 20 22
M  V30 22 1 6 7
M  V30 23 1 13 15
M  V30 24 1 21 22
M  V30 END BOND
M  V30 BEGIN COLLECTION
M  V30 MDLV30/STERAC1 ATOMS=(1 10)
M  V30 END COLLECTION
M  V30 END CTAB
M  END
>  <Molecule Name>
Triticonazole

>  <Order (spectra)>
356

>  <NAME>
Triticonazole

>  <Molecular Formula>
C17H20N3OCl

>  <Monoisotopic Mass>
317.129489

>  <SMILES>
CC1(CC/C(=C\C2=CC=C(C=C2)Cl)/C1(CN3C=NC=N3)O)C

>  <InChI>
InChI=1S/C17H20ClN3O/c1-16(2)8-7-14(9-13-3-5-15(18)6-4-13)17(16,22)10-21-12-19-11-20-21/h3-6,9,11-12,22H,7-8,10H2,1-2H3/t17-/m1/s1

>  <InChIKey>
PPDBOQMNKNNODG-NTEUORMPSA-N

>  <Kingdom>
Organic compounds

>  <Superclass>
Benzenoids

>  <Class>
Benzene and substituted derivatives

>  <Subclass>
Halobenzenes

>  <Parent Level 1>
Chlorobenzenes

>  <Parent Level 2>


>  <Parent Level 3>


>  <cLogP>
2.9869

>  <cLogS>
-3.838

>  <Druglikeness>
2.6957

>  <NP-class probability>
0.26

>  <SmilesFragFp 3>


>  <MS_READY_SMILES>
-

>  <MS_READY_InChI>


>  <QSAR_READY_SMILES>
-

>  <QSAR_READY_InChI>


>  <DTXSID>
-

>  <DTXCID>
-

>  <CASRN>
-

>  <EXPOCAST_MEDIAN_EXPOSURE_PREDICTION_MG/KG-BW/DAY>
-

>  <BIOCONCENTRATION_FACTOR_TEST_PRED>
-

>  <BOILING_POINT_DEGC_TEST_PRED>
-

>  <48HR_DAPHNIA_LC50_MOL/L_TEST_PRED>
-

>  <DENSITY_G/CM^3_TEST_PRED>
-

>  <DEVTOX_TEST_PRED>
-

>  <96HR_FATHEAD_MINNOW_MOL/L_TEST_PRED>
-

>  <FLASH_POINT_DEGC_TEST_PRED>
-

>  <MELTING_POINT_DEGC_TEST_PRED>
-

>  <AMES_MUTAGENICITY_TEST_PRED>
-

>  <ORAL_RAT_LD50_MOL/KG_TEST_PRED>
-

>  <SURFACE_TENSION_DYN/CM_TEST_PRED>
-

>  <THERMAL_CONDUCTIVITY_MW/(M*K)_TEST_PRED>
-

>  <TETRAHYMENA_PYRIFORMIS_IGC50_MOL/L_TEST_PRED>
-

>  <VISCOSITY_CP_CP_TEST_PRED>
-

>  <VAPOR_PRESSURE_MMHG_TEST_PRED>
-

>  <WATER_SOLUBILITY_MOL/L_TEST_PRED>
-

>  <ATMOSPHERIC_HYDROXYLATION_RATE_(AOH)_CM3/MOLECULE*SEC_OPERA_PRED>
-

>  <BIOCONCENTRATION_FACTOR_OPERA_PRED>
-

>  <BIODEGRADATION_HALF_LIFE_DAYS_DAYS_OPERA_PRED>
-

>  <BOILING_POINT_DEGC_OPERA_PRED>
-

>  <HENRYS_LAW_ATM-M3/MOLE_OPERA_PRED>
-

>  <OPERA_KM_DAYS_OPERA_PRED>
-

>  <OCTANOL_AIR_PARTITION_COEFF_LOGKOA_OPERA_PRED>
-

>  <SOIL_ADSORPTION_COEFFICIENT_KOC_L/KG_OPERA_PRED>
-

>  <OCTANOL_WATER_PARTITION_LOGP_OPERA_PRED>
-

>  <MELTING_POINT_DEGC_OPERA_PRED>
-

>  <VAPOR_PRESSURE_MMHG_OPERA_PRED>
-

>  <WATER_SOLUBILITY_MOL/L_OPERA_PRED>
-

>  <Shape Index>
0.54545

>  <Molecular Flexibility>
0.39393

>  <Molecular Complexity>
0.81997

>  <Electronegative Atoms>
5

>  <Stereo Centers>
1

>  <Rotatable Bonds>
3

>  <Rings Closures>
3

>  <Aromatic Rings>
2

>  <Aromatic Atoms>
11

>  <Amides>
0

>  <Amines>
0

>  <Aromatic Nitrogens>
3

>  <Shape Index 2>
0.54545

>  <Molecular Flexibility 2>
0.39393

>  <Molecular Complexity 2>
0.81997

>  <Non-C/H Atoms>
5

>  <Electronegative Atoms 2>
5

>  <Stereo Centers 2>
1

>  <Rotatable Bonds 2>
3

>  <Rings Closures 2>
3

>  <Aromatic Rings 2>
2

>  <Aromatic Atoms 2>
11

>  <sp3-Atoms>
8

>  <Amides 2>
0

>  <Amines 2>
0

>  <Aromatic Nitrogens 2>
3

>  <Basic Nitrogens>
0

$$$$
Fenpropimorph
Actelion Java MolfileCreator 2.0

  0  0  0  0  0  0              0 V3000
M  V30 BEGIN CTAB
M  V30 COUNTS 22 23 0 0 0
M  V30 BEGIN ATOM
M  V30 1 O 0.0 0.0 0.0 0
M  V30 2 C -0.0117 1.509 0.0 0 CFG=2
M  V30 3 C -1.3086 -0.7309 0.0 0 CFG=1
M  V30 4 C -1.3204 2.2635 0.0 0
M  V30 5 C 1.2732 2.2635 0.0 0
M  V30 6 C -2.6172 0.0235 0.0 0
M  V30 7 C -1.3204 -2.2164 0.0 0
M  V30 8 N -2.629 1.5326 0.0 0
M  V30 9 C -3.9376 2.2871 0.0 0
M  V30 10 C -5.2462 1.5562 0.0 0
M  V30 11 C -6.5549 2.3107 0.0 0
M  V30 12 C -5.258 0.0707 0.0 0
M  V30 13 C -7.8635 1.5797 0.0 0
M  V30 14 C -9.1721 2.3343 0.0 0
M  V30 15 C -7.8753 0.0943 0.0 0
M  V30 16 C -10.4808 1.6033 0.0 0
M  V30 17 C -9.1839 -0.6366 0.0 0
M  V30 18 C -10.4925 0.1178 0.0 0
M  V30 19 C -11.8012 -0.613 0.0 0
M  V30 20 C -11.0702 -1.898 0.0 0
M  V30 21 C -13.1098 -1.3557 0.0 0
M  V30 22 C -12.5557 0.6955 0.0 0
M  V30 END ATOM
M  V30 BEGIN BOND
M  V30 1 1 1 2
M  V30 2 1 1 3
M  V30 3 1 2 4
M  V30 4 1 2 5 CFG=3
M  V30 5 1 3 6
M  V30 6 1 3 7 CFG=3
M  V30 7 1 4 8
M  V30 8 1 8 9
M  V30 9 1 9 10
M  V30 10 1 10 11
M  V30 11 1 10 12
M  V30 12 1 11 13
M  V30 13 2 13 14
M  V30 14 1 13 15
M  V30 15 1 14 16
M  V30 16 2 15 17
M  V30 17 2 16 18
M  V30 18 1 18 19
M  V30 19 1 19 20
M  V30 20 1 19 21
M  V30 21 1 19 22
M  V30 22 1 6 8
M  V30 23 1 17 18
M  V30 END BOND
M  V30 BEGIN COLLECTION
M  V30 MDLV30/STEABS ATOMS=(2 2 3)
M  V30 END COLLECTION
M  V30 END CTAB
M  END
>  <Molecule Name>
Fenpropimorph

>  <Order (spectra)>
359

>  <NAME>
Fenpropimorph

>  <Molecular Formula>
C20H33NO

>  <Monoisotopic Mass>
303.256214

>  <SMILES>
CC(CN1C[C@H](C)O[C@H](C)C1)CC1=CC=C(C=C1)C(C)(C)C

>  <InChI>
InChI=1S/C20H33NO/c1-15(12-21-13-16(2)22-17(3)14-21)11-18-7-9-19(10-8-18)20(4,5)6/h7-10,15-17H,11-14H2,1-6H3/t15?,16-,17+

>  <InChIKey>
RYAUSSKQMZRMAI-ALOPSCKCSA-N

>  <Kingdom>
Organic compounds

>  <Superclass>
Benzenoids

>  <Class>
Benzene and substituted derivatives

>  <Subclass>
Phenylpropanes

>  <Parent Level 1>
Phenylpropanes

>  <Parent Level 2>


>  <Parent Level 3>


>  <cLogP>
4.5856

>  <cLogS>
-3.655

>  <Druglikeness>
0.39949

>  <NP-class probability>
0.03

>  <SmilesFragFp 3>


>  <MS_READY_SMILES>
CC(CN1CC(C)OC(C)C1)CC1=CC=C(C=C1)C(C)(C)C

>  <MS_READY_InChI>
InChI=1S/C20H33NO/c1-15(12-21-13-16(2)22-17(3)14-21)11-18-7-9-19(10-8-18)20(4,5)6/h7-10,15-17H,11-14H2,1-6H3

>  <QSAR_READY_SMILES>
CC(CN1CC(C)OC(C)C1)CC1=CC=C(C=C1)C(C)(C)C

>  <QSAR_READY_InChI>
InChI=1S/C20H33NO/c1-15(12-21-13-16(2)22-17(3)14-21)11-18-7-9-19(10-8-18)20(4,5)6/h7-10,15-17H,11-14H2,1-6H3

>  <DTXSID>
DTXSID4034601

>  <DTXCID>
DTXCID1032359

>  <CASRN>
67564-91-4

>  <EXPOCAST_MEDIAN_EXPOSURE_PREDICTION_MG/KG-BW/DAY>
4.43E-07

>  <BIOCONCENTRATION_FACTOR_TEST_PRED>
632.412

>  <BOILING_POINT_DEGC_TEST_PRED>
312.915

>  <48HR_DAPHNIA_LC50_MOL/L_TEST_PRED>
7.08E-06

>  <DENSITY_G/CM^3_TEST_PRED>
0.918

>  <DEVTOX_TEST_PRED>
0.458

>  <96HR_FATHEAD_MINNOW_MOL/L_TEST_PRED>
1.64E-05

>  <FLASH_POINT_DEGC_TEST_PRED>
159.02

>  <MELTING_POINT_DEGC_TEST_PRED>
51.245

>  <AMES_MUTAGENICITY_TEST_PRED>
-0.043

>  <ORAL_RAT_LD50_MOL/KG_TEST_PRED>
0.00583445

>  <SURFACE_TENSION_DYN/CM_TEST_PRED>
34.163

>  <THERMAL_CONDUCTIVITY_MW/(M*K)_TEST_PRED>
131.056

>  <TETRAHYMENA_PYRIFORMIS_IGC50_MOL/L_TEST_PRED>
4.24E-06

>  <VISCOSITY_CP_CP_TEST_PRED>
15.8489

>  <VAPOR_PRESSURE_MMHG_TEST_PRED>
1.92E-05

>  <WATER_SOLUBILITY_MOL/L_TEST_PRED>
1.99E-05

>  <ATMOSPHERIC_HYDROXYLATION_RATE_(AOH)_CM3/MOLECULE*SEC_OPERA_PRED>
2.31E-11

>  <BIOCONCENTRATION_FACTOR_OPERA_PRED>
241.809

>  <BIODEGRADATION_HALF_LIFE_DAYS_DAYS_OPERA_PRED>
12.6434

>  <BOILING_POINT_DEGC_OPERA_PRED>
315.836

>  <HENRYS_LAW_ATM-M3/MOLE_OPERA_PRED>
7.34E-07

>  <OPERA_KM_DAYS_OPERA_PRED>
2.35606

>  <OCTANOL_AIR_PARTITION_COEFF_LOGKOA_OPERA_PRED>
8.85004

>  <SOIL_ADSORPTION_COEFFICIENT_KOC_L/KG_OPERA_PRED>
1594.18

>  <OCTANOL_WATER_PARTITION_LOGP_OPERA_PRED>
4.93207

>  <MELTING_POINT_DEGC_OPERA_PRED>
132.021

>  <VAPOR_PRESSURE_MMHG_OPERA_PRED>
3.01E-08

>  <WATER_SOLUBILITY_MOL/L_OPERA_PRED>
1.42E-05

>  <Shape Index>
0.59091

>  <Molecular Flexibility>
0.63999

>  <Molecular Complexity>
0.65353

>  <Electronegative Atoms>
2

>  <Stereo Centers>
3

>  <Rotatable Bonds>
5

>  <Rings Closures>
2

>  <Aromatic Rings>
1

>  <Aromatic Atoms>
6

>  <Amides>
0

>  <Amines>
1

>  <Aromatic Nitrogens>
0

>  <Shape Index 2>
0.59091

>  <Molecular Flexibility 2>
0.63999

>  <Molecular Complexity 2>
0.65353

>  <Non-C/H Atoms>
2

>  <Electronegative Atoms 2>
2

>  <Stereo Centers 2>
3

>  <Rotatable Bonds 2>
5

>  <Rings Closures 2>
2

>  <Aromatic Rings 2>
1

>  <Aromatic Atoms 2>
6

>  <sp3-Atoms>
16

>  <Amides 2>
0

>  <Amines 2>
1

>  <Aromatic Nitrogens 2>
0

>  <Basic Nitrogens>
1

$$$$
Spirodiclofen
Actelion Java MolfileCreator 2.0

  0  0  0  0  0  0              0 V3000
M  V30 BEGIN CTAB
M  V30 COUNTS 27 29 0 0 0
M  V30 BEGIN ATOM
M  V30 1 Cl 0.0 0.0 0.0 0
M  V30 2 C -1.1239 -0.9937 0.0 0
M  V30 3 C -2.5672 -0.5205 0.0 0
M  V30 4 C -0.8281 -2.4489 0.0 0
M  V30 5 C -2.8866 0.9582 0.0 0
M  V30 6 C -3.6556 -1.5261 0.0 0
M  V30 7 C -1.952 -3.4427 0.0 0
M  V30 8 C -1.8928 2.0821 0.0 0
M  V30 9 C -4.2708 1.5852 0.0 0
M  V30 10 C -3.3953 -2.9813 0.0 0
M  V30 11 Cl -1.6562 -4.8978 0.0 0
M  V30 12 O -0.414 1.9402 0.0 0
M  V30 13 O -2.6618 3.3953 0.0 0
M  V30 14 O -5.584 0.8518 0.0 0
M  V30 15 C -4.1288 3.0877 0.0 0
M  V30 16 C -5.5958 -0.6388 0.0 0
M  V30 17 C -3.8331 4.5666 0.0 0
M  V30 18 C -5.5722 2.6382 0.0 0
M  V30 19 O -4.3891 -1.3605 0.0 0
M  V30 20 C -6.909 -1.3723 0.0 0
M  V30 21 C -4.957 5.584 0.0 0
M  V30 22 C -6.6961 3.6556 0.0 0
M  V30 23 C -6.9208 -2.863 0.0 0
M  V30 24 C -8.4233 -1.3605 0.0 0
M  V30 25 C -7.6662 -0.0591 0.0 0
M  V30 26 C -6.4003 5.1344 0.0 0
M  V30 27 C -5.6313 -3.6083 0.0 0
M  V30 END ATOM
M  V30 BEGIN BOND
M  V30 1 1 1 2
M  V30 2 2 2 3
M  V30 3 1 2 4
M  V30 4 1 3 5
M  V30 5 1 3 6
M  V30 6 2 4 7
M  V30 7 1 5 8
M  V30 8 2 5 9
M  V30 9 2 6 10
M  V30 10 1 7 11
M  V30 11 2 8 12
M  V30 12 1 8 13
M  V30 13 1 9 14
M  V30 14 1 9 15
M  V30 15 1 14 16
M  V30 16 1 15 17
M  V30 17 1 15 18
M  V30 18 2 16 19
M  V30 19 1 16 20
M  V30 20 1 17 21
M  V30 21 1 18 22
M  V30 22 1 20 23
M  V30 23 1 20 24
M  V30 24 1 20 25
M  V30 25 1 21 26
M  V30 26 1 23 27
M  V30 27 1 7 10
M  V30 28 1 13 15
M  V30 29 1 22 26
M  V30 END BOND
M  V30 END CTAB
M  END
>  <Molecule Name>
Spirodiclofen

>  <Order (spectra)>
360

>  <NAME>
Spirodiclofen

>  <Molecular Formula>
C21H24O4Cl2

>  <Monoisotopic Mass>
410.105164

>  <SMILES>
CCC(C)(C)C(=O)OC1=C(C(=O)OC11CCCCC1)C1=CC=C(Cl)C=C1Cl

>  <InChI>
InChI=1S/C21H24Cl2O4/c1-4-20(2,3)19(25)26-17-16(14-9-8-13(22)12-15(14)23)18(24)27-21(17)10-6-5-7-11-21/h8-9,12H,4-7,10-11H2,1-3H3

>  <InChIKey>
DTDSAWVUFPGDMX-UHFFFAOYSA-N

>  <Kingdom>
Organic compounds

>  <Superclass>
Benzenoids

>  <Class>
Benzene and substituted derivatives

>  <Subclass>
Halobenzenes

>  <Parent Level 1>
Chlorobenzenes

>  <Parent Level 2>
Dichlorobenzenes

>  <Parent Level 3>


>  <cLogP>
5.2048

>  <cLogS>
-5.775

>  <Druglikeness>
-4.3535

>  <NP-class probability>
0.67

>  <SmilesFragFp 3>


>  <MS_READY_SMILES>
CCC(C)(C)C(=O)OC1=C(C(=O)OC11CCCCC1)C1=CC=C(Cl)C=C1Cl

>  <MS_READY_InChI>
InChI=1S/C21H24Cl2O4/c1-4-20(2,3)19(25)26-17-16(14-9-8-13(22)12-15(14)23)18(24)27-21(17)10-6-5-7-11-21/h8-9,12H,4-7,10-11H2,1-3H3

>  <QSAR_READY_SMILES>
CCC(C)(C)C(=O)OC1=C(C(=O)OC11CCCCC1)C1=CC=C(Cl)C=C1Cl

>  <QSAR_READY_InChI>
InChI=1S/C21H24Cl2O4/c1-4-20(2,3)19(25)26-17-16(14-9-8-13(22)12-15(14)23)18(24)27-21(17)10-6-5-7-11-21/h8-9,12H,4-7,10-11H2,1-3H3

>  <DTXSID>
DTXSID6034928

>  <DTXCID>
DTXCID201334167

>  <CASRN>
148477-71-8

>  <EXPOCAST_MEDIAN_EXPOSURE_PREDICTION_MG/KG-BW/DAY>
2.22E-07

>  <BIOCONCENTRATION_FACTOR_TEST_PRED>
-

>  <BOILING_POINT_DEGC_TEST_PRED>
-

>  <48HR_DAPHNIA_LC50_MOL/L_TEST_PRED>
-

>  <DENSITY_G/CM^3_TEST_PRED>
-

>  <DEVTOX_TEST_PRED>
-

>  <96HR_FATHEAD_MINNOW_MOL/L_TEST_PRED>
-

>  <FLASH_POINT_DEGC_TEST_PRED>
-

>  <MELTING_POINT_DEGC_TEST_PRED>
-

>  <AMES_MUTAGENICITY_TEST_PRED>
-

>  <ORAL_RAT_LD50_MOL/KG_TEST_PRED>
-

>  <SURFACE_TENSION_DYN/CM_TEST_PRED>
-

>  <THERMAL_CONDUCTIVITY_MW/(M*K)_TEST_PRED>
-

>  <TETRAHYMENA_PYRIFORMIS_IGC50_MOL/L_TEST_PRED>
-

>  <VISCOSITY_CP_CP_TEST_PRED>
-

>  <VAPOR_PRESSURE_MMHG_TEST_PRED>
-

>  <WATER_SOLUBILITY_MOL/L_TEST_PRED>
-

>  <ATMOSPHERIC_HYDROXYLATION_RATE_(AOH)_CM3/MOLECULE*SEC_OPERA_PRED>
2.30E-11

>  <BIOCONCENTRATION_FACTOR_OPERA_PRED>
294.021

>  <BIODEGRADATION_HALF_LIFE_DAYS_DAYS_OPERA_PRED>
3.3619

>  <BOILING_POINT_DEGC_OPERA_PRED>
389.59

>  <HENRYS_LAW_ATM-M3/MOLE_OPERA_PRED>
1.27E-08

>  <OPERA_KM_DAYS_OPERA_PRED>
1.29859

>  <OCTANOL_AIR_PARTITION_COEFF_LOGKOA_OPERA_PRED>
11.6984

>  <SOIL_ADSORPTION_COEFFICIENT_KOC_L/KG_OPERA_PRED>
17839.2

>  <OCTANOL_WATER_PARTITION_LOGP_OPERA_PRED>
4.65223

>  <MELTING_POINT_DEGC_OPERA_PRED>
105.572

>  <VAPOR_PRESSURE_MMHG_OPERA_PRED>
1.57E-08

>  <WATER_SOLUBILITY_MOL/L_OPERA_PRED>
1.22E-07

>  <Shape Index>
0.44444

>  <Molecular Flexibility>
0.40501

>  <Molecular Complexity>
0.91193

>  <Electronegative Atoms>
6

>  <Stereo Centers>
0

>  <Rotatable Bonds>
5

>  <Rings Closures>
3

>  <Aromatic Rings>
1

>  <Aromatic Atoms>
6

>  <Amides>
0

>  <Amines>
0

>  <Aromatic Nitrogens>
0

>  <Shape Index 2>
0.44444

>  <Molecular Flexibility 2>
0.40501

>  <Molecular Complexity 2>
0.91193

>  <Non-C/H Atoms>
6

>  <Electronegative Atoms 2>
6

>  <Stereo Centers 2>
0

>  <Rotatable Bonds 2>
5

>  <Rings Closures 2>
3

>  <Aromatic Rings 2>
1

>  <Aromatic Atoms 2>
6

>  <sp3-Atoms>
13

>  <Amides 2>
0

>  <Amines 2>
0

>  <Aromatic Nitrogens 2>
0

>  <Basic Nitrogens>
0

$$$$
Spirotetramat
Actelion Java MolfileCreator 2.0

  0  0  0  0  0  0              0 V3000
M  V30 BEGIN CTAB
M  V30 COUNTS 27 29 0 0 0
M  V30 BEGIN ATOM
M  V30 1 O 0.0 0.0 0.0 0
M  V30 2 C -1.5025 0.1656 0.0 0
M  V30 3 N -2.2716 1.4789 0.0 0
M  V30 4 C -2.5201 -0.9346 0.0 0
M  V30 5 C -3.7505 1.1831 0.0 0
M  V30 6 C -2.2243 -2.3899 0.0 0
M  V30 7 C -3.9043 -0.3076 0.0 0
M  V30 8 C -3.4547 2.662 0.0 0
M  V30 9 C -5.194 0.7335 0.0 0
M  V30 10 C -0.8045 -2.8395 0.0 0
M  V30 11 C -3.3128 -3.3956 0.0 0
M  V30 12 O -5.2176 -1.0411 0.0 0
M  V30 13 C -4.5787 3.6795 0.0 0
M  V30 14 C -6.318 1.751 0.0 0
M  V30 15 C -0.5087 -4.2948 0.0 0
M  V30 16 C 0.2957 -1.822 0.0 0
M  V30 17 C -3.0525 -4.8509 0.0 0
M  V30 18 C -5.2295 -2.5319 0.0 0
M  V30 19 C -6.0222 3.2299 0.0 0
M  V30 20 C -1.6327 -5.2886 0.0 0
M  V30 21 C -4.1765 -5.8447 0.0 0
M  V30 22 O -4.0227 -3.2536 0.0 0
M  V30 23 O -6.5428 -3.2654 0.0 0
M  V30 24 O -7.1462 4.2475 0.0 0
M  V30 25 C -7.8561 -2.5082 0.0 0
M  V30 26 C -8.5896 3.7979 0.0 0
M  V30 27 C -7.8679 -0.9938 0.0 0
M  V30 END ATOM
M  V30 BEGIN BOND
M  V30 1 2 1 2
M  V30 2 1 2 3
M  V30 3 1 2 4
M  V30 4 1 3 5
M  V30 5 1 4 6
M  V30 6 2 4 7
M  V30 7 1 5 8
M  V30 8 1 5 9
M  V30 9 2 6 10
M  V30 10 1 6 11
M  V30 11 1 7 12
M  V30 12 1 8 13
M  V30 13 1 9 14
M  V30 14 1 10 15
M  V30 15 1 10 16
M  V30 16 2 11 17
M  V30 17 1 12 18
M  V30 18 1 13 19
M  V30 19 2 15 20
M  V30 20 1 17 21
M  V30 21 2 18 22
M  V30 22 1 18 23
M  V30 23 1 19 24
M  V30 24 1 23 25
M  V30 25 1 24 26
M  V30 26 1 25 27
M  V30 27 1 5 7
M  V30 28 1 14 19
M  V30 29 1 17 20
M  V30 END BOND
M  V30 END CTAB
M  END
>  <Molecule Name>
Spirotetramat

>  <Order (spectra)>
362

>  <NAME>
Spirotetramat

>  <Molecular Formula>
C21H27NO5

>  <Monoisotopic Mass>
373.188924

>  <SMILES>
CCOC(=O)OC1=C(C(=O)NC12CCC(CC2)OC)C3=C(C=CC(=C3)C)C

>  <InChI>
InChI=1S/C21H27NO5/c1-5-26-20(24)27-18-17(16-12-13(2)6-7-14(16)3)19(23)22-21(18)10-8-15(25-4)9-11-21/h6-7,12,15H,5,8-11H2,1-4H3,(H,22,23)

>  <InChIKey>
CLSVJBIHYWPGQY-UHFFFAOYSA-N

>  <Kingdom>
Organic compounds

>  <Superclass>
Benzenoids

>  <Class>
Benzene and substituted derivatives

>  <Subclass>
Xylenes

>  <Parent Level 1>
p-Xylenes

>  <Parent Level 2>


>  <Parent Level 3>


>  <cLogP>
3.0295

>  <cLogS>
-4.322

>  <Druglikeness>
-0.3375

>  <NP-class probability>
0.61

>  <SmilesFragFp 3>


>  <MS_READY_SMILES>
-

>  <MS_READY_InChI>


>  <QSAR_READY_SMILES>
-

>  <QSAR_READY_InChI>


>  <DTXSID>
-

>  <DTXCID>
-

>  <CASRN>
-

>  <EXPOCAST_MEDIAN_EXPOSURE_PREDICTION_MG/KG-BW/DAY>
-

>  <BIOCONCENTRATION_FACTOR_TEST_PRED>
-

>  <BOILING_POINT_DEGC_TEST_PRED>
-

>  <48HR_DAPHNIA_LC50_MOL/L_TEST_PRED>
-

>  <DENSITY_G/CM^3_TEST_PRED>
-

>  <DEVTOX_TEST_PRED>
-

>  <96HR_FATHEAD_MINNOW_MOL/L_TEST_PRED>
-

>  <FLASH_POINT_DEGC_TEST_PRED>
-

>  <MELTING_POINT_DEGC_TEST_PRED>
-

>  <AMES_MUTAGENICITY_TEST_PRED>
-

>  <ORAL_RAT_LD50_MOL/KG_TEST_PRED>
-

>  <SURFACE_TENSION_DYN/CM_TEST_PRED>
-

>  <THERMAL_CONDUCTIVITY_MW/(M*K)_TEST_PRED>
-

>  <TETRAHYMENA_PYRIFORMIS_IGC50_MOL/L_TEST_PRED>
-

>  <VISCOSITY_CP_CP_TEST_PRED>
-

>  <VAPOR_PRESSURE_MMHG_TEST_PRED>
-

>  <WATER_SOLUBILITY_MOL/L_TEST_PRED>
-

>  <ATMOSPHERIC_HYDROXYLATION_RATE_(AOH)_CM3/MOLECULE*SEC_OPERA_PRED>
-

>  <BIOCONCENTRATION_FACTOR_OPERA_PRED>
-

>  <BIODEGRADATION_HALF_LIFE_DAYS_DAYS_OPERA_PRED>
-

>  <BOILING_POINT_DEGC_OPERA_PRED>
-

>  <HENRYS_LAW_ATM-M3/MOLE_OPERA_PRED>
-

>  <OPERA_KM_DAYS_OPERA_PRED>
-

>  <OCTANOL_AIR_PARTITION_COEFF_LOGKOA_OPERA_PRED>
-

>  <SOIL_ADSORPTION_COEFFICIENT_KOC_L/KG_OPERA_PRED>
-

>  <OCTANOL_WATER_PARTITION_LOGP_OPERA_PRED>
-

>  <MELTING_POINT_DEGC_OPERA_PRED>
-

>  <VAPOR_PRESSURE_MMHG_OPERA_PRED>
-

>  <WATER_SOLUBILITY_MOL/L_OPERA_PRED>
-

>  <Shape Index>
0.44444

>  <Molecular Flexibility>
0.35388

>  <Molecular Complexity>
0.89773

>  <Electronegative Atoms>
6

>  <Stereo Centers>
0

>  <Rotatable Bonds>
6

>  <Rings Closures>
3

>  <Aromatic Rings>
1

>  <Aromatic Atoms>
6

>  <Amides>
1

>  <Amines>
0

>  <Aromatic Nitrogens>
0

>  <Shape Index 2>
0.44444

>  <Molecular Flexibility 2>
0.35388

>  <Molecular Complexity 2>
0.89773

>  <Non-C/H Atoms>
6

>  <Electronegative Atoms 2>
6

>  <Stereo Centers 2>
0

>  <Rotatable Bonds 2>
6

>  <Rings Closures 2>
3

>  <Aromatic Rings 2>
1

>  <Aromatic Atoms 2>
6

>  <sp3-Atoms>
14

>  <Amides 2>
1

>  <Amines 2>
0

>  <Aromatic Nitrogens 2>
0

>  <Basic Nitrogens>
0

$$$$
Bisphenol A
Actelion Java MolfileCreator 2.0

  0  0  0  0  0  0              0 V3000
M  V30 BEGIN CTAB
M  V30 COUNTS 17 18 0 0 0
M  V30 BEGIN ATOM
M  V30 1 O 0.0 0.0 0.0 0
M  V30 2 C -1.3039 0.7518 0.0 0
M  V30 3 C -1.3157 2.2555 0.0 0
M  V30 4 C -2.6079 0.0117 0.0 0
M  V30 5 C -2.6197 3.0073 0.0 0
M  V30 6 C -3.9119 0.7635 0.0 0
M  V30 7 C -3.9236 2.2672 0.0 0
M  V30 8 C -5.2276 3.0191 0.0 0
M  V30 9 C -6.5316 2.279 0.0 0
M  V30 10 C -4.4875 4.3231 0.0 0
M  V30 11 C -5.9795 4.3231 0.0 0
M  V30 12 C -7.8356 3.0308 0.0 0
M  V30 13 C -6.5434 0.7988 0.0 0
M  V30 14 C -9.1396 2.2907 0.0 0
M  V30 15 C -7.8473 0.0587 0.0 0
M  V30 16 C -9.1513 0.8105 0.0 0
M  V30 17 O -10.4553 0.0704 0.0 0
M  V30 END ATOM
M  V30 BEGIN BOND
M  V30 1 1 1 2
M  V30 2 2 2 3
M  V30 3 1 2 4
M  V30 4 1 3 5
M  V30 5 2 4 6
M  V30 6 2 5 7
M  V30 7 1 7 8
M  V30 8 1 8 9
M  V30 9 1 8 10
M  V30 10 1 8 11
M  V30 11 2 9 12
M  V30 12 1 9 13
M  V30 13 1 12 14
M  V30 14 2 13 15
M  V30 15 2 14 16
M  V30 16 1 16 17
M  V30 17 1 6 7
M  V30 18 1 15 16
M  V30 END BOND
M  V30 END CTAB
M  END
>  <Molecule Name>
Bisphenol A

>  <Order (spectra)>
364

>  <NAME>
Bisphenol A

>  <Molecular Formula>
C15H16O2

>  <Monoisotopic Mass>
228.11503

>  <SMILES>
CC(C)(C1=CC=C(O)C=C1)C1=CC=C(O)C=C1

>  <InChI>
InChI=1S/C15H16O2/c1-15(2,11-3-7-13(16)8-4-11)12-5-9-14(17)10-6-12/h3-10,16-17H,1-2H3

>  <InChIKey>
IISBACLAFKSPIT-UHFFFAOYSA-N

>  <Kingdom>
Organic compounds

>  <Superclass>
Benzenoids

>  <Class>
Benzene and substituted derivatives

>  <Subclass>
Diphenylmethanes

>  <Parent Level 1>
Bisphenols

>  <Parent Level 2>


>  <Parent Level 3>


>  <cLogP>
2.8655

>  <cLogS>
-2.297

>  <Druglikeness>
-3.2442

>  <NP-class probability>
0.71

>  <SmilesFragFp 3>


>  <MS_READY_SMILES>
CC(C)(C1=CC=C(O)C=C1)C1=CC=C(O)C=C1

>  <MS_READY_InChI>
InChI=1S/C15H16O2/c1-15(2,11-3-7-13(16)8-4-11)12-5-9-14(17)10-6-12/h3-10,16-17H,1-2H3

>  <QSAR_READY_SMILES>
CC(C)(C1=CC=C(O)C=C1)C1=CC=C(O)C=C1

>  <QSAR_READY_InChI>
InChI=1S/C15H16O2/c1-15(2,11-3-7-13(16)8-4-11)12-5-9-14(17)10-6-12/h3-10,16-17H,1-2H3

>  <DTXSID>
DTXSID7020182

>  <DTXCID>
DTXCID30182

>  <CASRN>
80-05-7

>  <EXPOCAST_MEDIAN_EXPOSURE_PREDICTION_MG/KG-BW/DAY>
5.50E-05

>  <BIOCONCENTRATION_FACTOR_TEST_PRED>
117.22

>  <BOILING_POINT_DEGC_TEST_PRED>
359.933

>  <48HR_DAPHNIA_LC50_MOL/L_TEST_PRED>
6.92E-06

>  <DENSITY_G/CM^3_TEST_PRED>
1.195

>  <DEVTOX_TEST_PRED>
0.711

>  <96HR_FATHEAD_MINNOW_MOL/L_TEST_PRED>
1.42E-05

>  <FLASH_POINT_DEGC_TEST_PRED>
188.141

>  <MELTING_POINT_DEGC_TEST_PRED>
124.909

>  <AMES_MUTAGENICITY_TEST_PRED>
0.086

>  <ORAL_RAT_LD50_MOL/KG_TEST_PRED>
0.0179887

>  <SURFACE_TENSION_DYN/CM_TEST_PRED>
-

>  <THERMAL_CONDUCTIVITY_MW/(M*K)_TEST_PRED>
150.389

>  <TETRAHYMENA_PYRIFORMIS_IGC50_MOL/L_TEST_PRED>
2.32E-05

>  <VISCOSITY_CP_CP_TEST_PRED>
9.66051

>  <VAPOR_PRESSURE_MMHG_TEST_PRED>
2.59E-06

>  <WATER_SOLUBILITY_MOL/L_TEST_PRED>
0.00124451

>  <ATMOSPHERIC_HYDROXYLATION_RATE_(AOH)_CM3/MOLECULE*SEC_OPERA_PRED>
1.64E-11

>  <BIOCONCENTRATION_FACTOR_OPERA_PRED>
43.6523

>  <BIODEGRADATION_HALF_LIFE_DAYS_DAYS_OPERA_PRED>
15.145

>  <BOILING_POINT_DEGC_OPERA_PRED>
343.191

>  <HENRYS_LAW_ATM-M3/MOLE_OPERA_PRED>
1.25E-07

>  <OPERA_KM_DAYS_OPERA_PRED>
1.85933

>  <OCTANOL_AIR_PARTITION_COEFF_LOGKOA_OPERA_PRED>
8.38031

>  <SOIL_ADSORPTION_COEFFICIENT_KOC_L/KG_OPERA_PRED>
1436.23

>  <OCTANOL_WATER_PARTITION_LOGP_OPERA_PRED>
3.32044

>  <MELTING_POINT_DEGC_OPERA_PRED>
152.696

>  <VAPOR_PRESSURE_MMHG_OPERA_PRED>
6.78E-08

>  <WATER_SOLUBILITY_MOL/L_OPERA_PRED>
0.000745153

>  <Shape Index>
0.64706

>  <Molecular Flexibility>
0.53067

>  <Molecular Complexity>
0.64751

>  <Electronegative Atoms>
2

>  <Stereo Centers>
0

>  <Rotatable Bonds>
2

>  <Rings Closures>
2

>  <Aromatic Rings>
2

>  <Aromatic Atoms>
12

>  <Amides>
0

>  <Amines>
0

>  <Aromatic Nitrogens>
0

>  <Shape Index 2>
0.64706

>  <Molecular Flexibility 2>
0.53067

>  <Molecular Complexity 2>
0.64751

>  <Non-C/H Atoms>
2

>  <Electronegative Atoms 2>
2

>  <Stereo Centers 2>
0

>  <Rotatable Bonds 2>
2

>  <Rings Closures 2>
2

>  <Aromatic Rings 2>
2

>  <Aromatic Atoms 2>
12

>  <sp3-Atoms>
5

>  <Amides 2>
0

>  <Amines 2>
0

>  <Aromatic Nitrogens 2>
0

>  <Basic Nitrogens>
0

$$$$
4-tert-Octylphenol
Actelion Java MolfileCreator 2.0

  0  0  0  0  0  0              0 V3000
M  V30 BEGIN CTAB
M  V30 COUNTS 15 15 0 0 0
M  V30 BEGIN ATOM
M  V30 1 O 0.0 0.0 0.0 0
M  V30 2 C -1.3086 -0.7427 0.0 0
M  V30 3 C -2.6172 0.0117 0.0 0
M  V30 4 C -1.3204 -2.2281 0.0 0
M  V30 5 C -3.9258 -0.7309 0.0 0
M  V30 6 C -2.629 -2.9709 0.0 0
M  V30 7 C -3.9376 -2.2163 0.0 0
M  V30 8 C -5.2462 -2.9591 0.0 0
M  V30 9 C -6.5548 -2.2045 0.0 0
M  V30 10 C -6.0007 -4.2441 0.0 0
M  V30 11 C -4.5035 -4.2441 0.0 0
M  V30 12 C -7.8634 -2.9473 0.0 0
M  V30 13 C -7.1207 -4.2323 0.0 0
M  V30 14 C -9.172 -3.69 0.0 0
M  V30 15 C -8.6179 -1.6387 0.0 0
M  V30 END ATOM
M  V30 BEGIN BOND
M  V30 1 1 1 2
M  V30 2 2 2 3
M  V30 3 1 2 4
M  V30 4 1 3 5
M  V30 5 2 4 6
M  V30 6 2 5 7
M  V30 7 1 7 8
M  V30 8 1 8 9
M  V30 9 1 8 10
M  V30 10 1 8 11
M  V30 11 1 9 12
M  V30 12 1 12 13
M  V30 13 1 12 14
M  V30 14 1 12 15
M  V30 15 1 6 7
M  V30 END BOND
M  V30 END CTAB
M  END
>  <Molecule Name>
4-tert-Octylphenol

>  <Order (spectra)>
365

>  <NAME>
4-tert-Octylphenol

>  <Molecular Formula>
C14H22O

>  <Monoisotopic Mass>
206.167065

>  <SMILES>
CC(C)(C)CC(C)(C)C1=CC=C(O)C=C1

>  <InChI>
InChI=1S/C14H22O/c1-13(2,3)10-14(4,5)11-6-8-12(15)9-7-11/h6-9,15H,10H2,1-5H3

>  <InChIKey>
ISAVYTVYFVQUDY-UHFFFAOYSA-N

>  <Kingdom>
Organic compounds

>  <Superclass>
Benzenoids

>  <Class>
Benzene and substituted derivatives

>  <Subclass>
Phenylpropanes

>  <Parent Level 1>
Phenylpropanes

>  <Parent Level 2>


>  <Parent Level 3>


>  <cLogP>
4.5887

>  <cLogS>
-3.357

>  <Druglikeness>
-5.8012

>  <NP-class probability>
0.94

>  <SmilesFragFp 3>


>  <MS_READY_SMILES>
CC(C)(C)CC(C)(C)C1=CC=C(O)C=C1

>  <MS_READY_InChI>
InChI=1S/C14H22O/c1-13(2,3)10-14(4,5)11-6-8-12(15)9-7-11/h6-9,15H,10H2,1-5H3

>  <QSAR_READY_SMILES>
CC(C)(C)CC(C)(C)C1=CC=C(O)C=C1

>  <QSAR_READY_InChI>
InChI=1S/C14H22O/c1-13(2,3)10-14(4,5)11-6-8-12(15)9-7-11/h6-9,15H,10H2,1-5H3

>  <DTXSID>
DTXSID9022360

>  <DTXCID>
DTXCID602360

>  <CASRN>
140-66-9

>  <EXPOCAST_MEDIAN_EXPOSURE_PREDICTION_MG/KG-BW/DAY>
9.68E-07

>  <BIOCONCENTRATION_FACTOR_TEST_PRED>
139.637

>  <BOILING_POINT_DEGC_TEST_PRED>
293.064

>  <48HR_DAPHNIA_LC50_MOL/L_TEST_PRED>
8.83E-06

>  <DENSITY_G/CM^3_TEST_PRED>
0.996

>  <DEVTOX_TEST_PRED>
0.75

>  <96HR_FATHEAD_MINNOW_MOL/L_TEST_PRED>
2.21E-05

>  <FLASH_POINT_DEGC_TEST_PRED>
145.335

>  <MELTING_POINT_DEGC_TEST_PRED>
78.787

>  <AMES_MUTAGENICITY_TEST_PRED>
0.049

>  <ORAL_RAT_LD50_MOL/KG_TEST_PRED>
0.00701455

>  <SURFACE_TENSION_DYN/CM_TEST_PRED>
35.533

>  <THERMAL_CONDUCTIVITY_MW/(M*K)_TEST_PRED>
118.715

>  <TETRAHYMENA_PYRIFORMIS_IGC50_MOL/L_TEST_PRED>
4.48E-05

>  <VISCOSITY_CP_CP_TEST_PRED>
9.90832

>  <VAPOR_PRESSURE_MMHG_TEST_PRED>
0.00156315

>  <WATER_SOLUBILITY_MOL/L_TEST_PRED>
0.000132434

>  <ATMOSPHERIC_HYDROXYLATION_RATE_(AOH)_CM3/MOLECULE*SEC_OPERA_PRED>
1.67E-11

>  <BIOCONCENTRATION_FACTOR_OPERA_PRED>
289.068

>  <BIODEGRADATION_HALF_LIFE_DAYS_DAYS_OPERA_PRED>
4.08303

>  <BOILING_POINT_DEGC_OPERA_PRED>
263.348

>  <HENRYS_LAW_ATM-M3/MOLE_OPERA_PRED>
7.90E-06

>  <OPERA_KM_DAYS_OPERA_PRED>
0.910833

>  <OCTANOL_AIR_PARTITION_COEFF_LOGKOA_OPERA_PRED>
8.68572

>  <SOIL_ADSORPTION_COEFFICIENT_KOC_L/KG_OPERA_PRED>
2453.64

>  <OCTANOL_WATER_PARTITION_LOGP_OPERA_PRED>
4.86708

>  <MELTING_POINT_DEGC_OPERA_PRED>
84.2258

>  <VAPOR_PRESSURE_MMHG_OPERA_PRED>
0.000486421

>  <WATER_SOLUBILITY_MOL/L_OPERA_PRED>
8.75E-05

>  <Shape Index>
0.6

>  <Molecular Flexibility>
0.67374

>  <Molecular Complexity>
0.56169

>  <Electronegative Atoms>
1

>  <Stereo Centers>
0

>  <Rotatable Bonds>
3

>  <Rings Closures>
1

>  <Aromatic Rings>
1

>  <Aromatic Atoms>
6

>  <Amides>
0

>  <Amines>
0

>  <Aromatic Nitrogens>
0

>  <Shape Index 2>
0.6

>  <Molecular Flexibility 2>
0.67374

>  <Molecular Complexity 2>
0.56169

>  <Non-C/H Atoms>
1

>  <Electronegative Atoms 2>
1

>  <Stereo Centers 2>
0

>  <Rotatable Bonds 2>
3

>  <Rings Closures 2>
1

>  <Aromatic Rings 2>
1

>  <Aromatic Atoms 2>
6

>  <sp3-Atoms>
9

>  <Amides 2>
0

>  <Amines 2>
0

>  <Aromatic Nitrogens 2>
0

>  <Basic Nitrogens>
0

$$$$
Thiabendazole
Actelion Java MolfileCreator 2.0

  0  0  0  0  0  0              0 V3000
M  V30 BEGIN CTAB
M  V30 COUNTS 14 16 0 0 0
M  V30 BEGIN ATOM
M  V30 1 S 0.0 0.0 0.0 0
M  V30 2 C -0.7541 1.3079 0.0 0
M  V30 3 C -1.0133 -1.0958 0.0 0
M  V30 4 N -2.2269 1.0133 0.0 0
M  V30 5 C -2.3919 -0.4713 0.0 0
M  V30 6 C -3.6998 -1.2136 0.0 0
M  V30 7 N -5.0784 -0.5891 0.0 0
M  V30 8 N -3.8648 -2.6865 0.0 0
M  V30 9 C -6.0917 -1.6849 0.0 0
M  V30 10 C -5.3376 -2.981 0.0 0
M  V30 11 C -7.6 -1.6731 0.0 0
M  V30 12 C -6.1035 -4.2654 0.0 0
M  V30 13 C -8.3541 -2.9575 0.0 0
M  V30 14 C -7.6117 -4.2536 0.0 0
M  V30 END ATOM
M  V30 BEGIN BOND
M  V30 1 1 1 2
M  V30 2 1 1 3
M  V30 3 2 2 4
M  V30 4 2 3 5
M  V30 5 1 5 6
M  V30 6 2 6 7
M  V30 7 1 6 8
M  V30 8 1 7 9
M  V30 9 1 8 10
M  V30 10 1 9 11
M  V30 11 1 10 12
M  V30 12 2 11 13
M  V30 13 2 12 14
M  V30 14 1 4 5
M  V30 15 2 9 10
M  V30 16 1 13 14
M  V30 END BOND
M  V30 END CTAB
M  END
>  <Molecule Name>
Thiabendazole

>  <Order (spectra)>
329

>  <NAME>
Thiabendazole

>  <Molecular Formula>
C10H7N3S

>  <Monoisotopic Mass>
201.036067

>  <SMILES>
N1C2=C(C=CC=C2)N=C1C1=CSC=N1

>  <InChI>
InChI=1S/C10H7N3S/c1-2-4-8-7(3-1)12-10(13-8)9-5-14-6-11-9/h1-6H,(H,12,13)

>  <InChIKey>
WJCNZQLZVWNLKY-UHFFFAOYSA-N

>  <Kingdom>
Organic compounds

>  <Superclass>
Organoheterocyclic compounds

>  <Class>
Benzimidazoles

>  <Subclass>


>  <Parent Level 1>
Benzimidazoles

>  <Parent Level 2>


>  <Parent Level 3>


>  <cLogP>
1.7705

>  <cLogS>
-2.657

>  <Druglikeness>
0.86199

>  <NP-class probability>
0.08

>  <SmilesFragFp 3>


>  <MS_READY_SMILES>
N1C2=C(C=CC=C2)N=C1C1=CSC=N1

>  <MS_READY_InChI>
InChI=1S/C10H7N3S/c1-2-4-8-7(3-1)12-10(13-8)9-5-14-6-11-9/h1-6H,(H,12,13)

>  <QSAR_READY_SMILES>
N1C2=C(C=CC=C2)N=C1C1=CSC=N1

>  <QSAR_READY_InChI>
InChI=1S/C10H7N3S/c1-2-4-8-7(3-1)12-10(13-8)9-5-14-6-11-9/h1-6H,(H,12,13)

>  <DTXSID>
DTXSID0021337

>  <DTXCID>
DTXCID401337

>  <CASRN>
148-79-8

>  <EXPOCAST_MEDIAN_EXPOSURE_PREDICTION_MG/KG-BW/DAY>
3.38E-07

>  <BIOCONCENTRATION_FACTOR_TEST_PRED>
18.197

>  <BOILING_POINT_DEGC_TEST_PRED>
403.909

>  <48HR_DAPHNIA_LC50_MOL/L_TEST_PRED>
4.12E-05

>  <DENSITY_G/CM^3_TEST_PRED>
1.363

>  <DEVTOX_TEST_PRED>
0.486

>  <96HR_FATHEAD_MINNOW_MOL/L_TEST_PRED>
-

>  <FLASH_POINT_DEGC_TEST_PRED>
201.482

>  <MELTING_POINT_DEGC_TEST_PRED>
245.575

>  <AMES_MUTAGENICITY_TEST_PRED>
0.575

>  <ORAL_RAT_LD50_MOL/KG_TEST_PRED>
-

>  <SURFACE_TENSION_DYN/CM_TEST_PRED>
-

>  <THERMAL_CONDUCTIVITY_MW/(M*K)_TEST_PRED>
-

>  <TETRAHYMENA_PYRIFORMIS_IGC50_MOL/L_TEST_PRED>
0.000276694

>  <VISCOSITY_CP_CP_TEST_PRED>
-

>  <VAPOR_PRESSURE_MMHG_TEST_PRED>
7.06E-07

>  <WATER_SOLUBILITY_MOL/L_TEST_PRED>
0.000156675

>  <ATMOSPHERIC_HYDROXYLATION_RATE_(AOH)_CM3/MOLECULE*SEC_OPERA_PRED>
4.33E-11

>  <BIOCONCENTRATION_FACTOR_OPERA_PRED>
7.89022

>  <BIODEGRADATION_HALF_LIFE_DAYS_DAYS_OPERA_PRED>
3.53815

>  <BOILING_POINT_DEGC_OPERA_PRED>
335.969

>  <HENRYS_LAW_ATM-M3/MOLE_OPERA_PRED>
6.92E-08

>  <OPERA_KM_DAYS_OPERA_PRED>
0.14564

>  <OCTANOL_AIR_PARTITION_COEFF_LOGKOA_OPERA_PRED>
10.0496

>  <SOIL_ADSORPTION_COEFFICIENT_KOC_L/KG_OPERA_PRED>
1739.36

>  <OCTANOL_WATER_PARTITION_LOGP_OPERA_PRED>
2.46847

>  <MELTING_POINT_DEGC_OPERA_PRED>
299.714

>  <VAPOR_PRESSURE_MMHG_OPERA_PRED>
4.04E-09

>  <WATER_SOLUBILITY_MOL/L_OPERA_PRED>
0.0002519

>  <Shape Index>
0.57143

>  <Molecular Flexibility>
0.27453

>  <Molecular Complexity>
0.71194

>  <Electronegative Atoms>
4

>  <Stereo Centers>
0

>  <Rotatable Bonds>
1

>  <Rings Closures>
3

>  <Aromatic Rings>
3

>  <Aromatic Atoms>
14

>  <Amides>
0

>  <Amines>
0

>  <Aromatic Nitrogens>
3

>  <Shape Index 2>
0.57143

>  <Molecular Flexibility 2>
0.27453

>  <Molecular Complexity 2>
0.71194

>  <Non-C/H Atoms>
4

>  <Electronegative Atoms 2>
4

>  <Stereo Centers 2>
0

>  <Rotatable Bonds 2>
1

>  <Rings Closures 2>
3

>  <Aromatic Rings 2>
3

>  <Aromatic Atoms 2>
14

>  <sp3-Atoms>
0

>  <Amides 2>
0

>  <Amines 2>
0

>  <Aromatic Nitrogens 2>
3

>  <Basic Nitrogens>
1

$$$$
Fuberidazole
Actelion Java MolfileCreator 2.0

  0  0  0  0  0  0              0 V3000
M  V30 BEGIN CTAB
M  V30 COUNTS 14 16 0 0 0
M  V30 BEGIN ATOM
M  V30 1 O 0.0 0.0 0.0 0
M  V30 2 C -0.1655 -1.4782 0.0 0
M  V30 3 C 1.4545 0.3192 0.0 0
M  V30 4 C -1.4782 -2.2232 0.0 0
M  V30 5 C 1.1943 -2.0813 0.0 0
M  V30 6 C 2.1995 -0.9697 0.0 0
M  V30 7 N -2.8618 -1.5964 0.0 0
M  V30 8 N -1.6437 -3.7014 0.0 0
M  V30 9 C -3.8788 -2.6962 0.0 0
M  V30 10 C -3.1219 -3.997 0.0 0
M  V30 11 C -5.3924 -2.6844 0.0 0
M  V30 12 C -3.8906 -5.286 0.0 0
M  V30 13 C -6.1493 -3.9734 0.0 0
M  V30 14 C -5.4043 -5.2742 0.0 0
M  V30 END ATOM
M  V30 BEGIN BOND
M  V30 1 1 1 2
M  V30 2 1 1 3
M  V30 3 1 2 4
M  V30 4 2 2 5
M  V30 5 2 3 6
M  V30 6 2 4 7
M  V30 7 1 4 8
M  V30 8 1 7 9
M  V30 9 1 8 10
M  V30 10 1 9 11
M  V30 11 1 10 12
M  V30 12 2 11 13
M  V30 13 2 12 14
M  V30 14 1 5 6
M  V30 15 2 9 10
M  V30 16 1 13 14
M  V30 END BOND
M  V30 END CTAB
M  END
>  <Molecule Name>
Fuberidazole

>  <Order (spectra)>
358

>  <NAME>
Fuberidazole

>  <Molecular Formula>
C11H8N2O

>  <Monoisotopic Mass>
184.063663

>  <SMILES>
N1C2=CC=CC=C2N=C1C1=CC=CO1

>  <InChI>
InChI=1S/C11H8N2O/c1-2-5-9-8(4-1)12-11(13-9)10-6-3-7-14-10/h1-7H,(H,12,13)

>  <InChIKey>
UYJUZNLFJAWNEZ-UHFFFAOYSA-N

>  <Kingdom>
Organic compounds

>  <Superclass>
Organoheterocyclic compounds

>  <Class>
Benzimidazoles

>  <Subclass>


>  <Parent Level 1>
Benzimidazoles

>  <Parent Level 2>


>  <Parent Level 3>


>  <cLogP>
2.1279

>  <cLogS>
-3.322

>  <Druglikeness>
0.12395

>  <NP-class probability>
0.14

>  <SmilesFragFp 3>


>  <MS_READY_SMILES>
N1C2=CC=CC=C2N=C1C1=CC=CO1

>  <MS_READY_InChI>
InChI=1S/C11H8N2O/c1-2-5-9-8(4-1)12-11(13-9)10-6-3-7-14-10/h1-7H,(H,12,13)

>  <QSAR_READY_SMILES>
N1C2=CC=CC=C2N=C1C1=CC=CO1

>  <QSAR_READY_InChI>
InChI=1S/C11H8N2O/c1-2-5-9-8(4-1)12-11(13-9)10-6-3-7-14-10/h1-7H,(H,12,13)

>  <DTXSID>
DTXSID4041995

>  <DTXCID>
DTXCID2021995

>  <CASRN>
3878-19-1

>  <EXPOCAST_MEDIAN_EXPOSURE_PREDICTION_MG/KG-BW/DAY>
1.85E-06

>  <BIOCONCENTRATION_FACTOR_TEST_PRED>
30.5492

>  <BOILING_POINT_DEGC_TEST_PRED>
359.693

>  <48HR_DAPHNIA_LC50_MOL/L_TEST_PRED>
2.86E-05

>  <DENSITY_G/CM^3_TEST_PRED>
1.276

>  <DEVTOX_TEST_PRED>
0.545

>  <96HR_FATHEAD_MINNOW_MOL/L_TEST_PRED>
1.82E-05

>  <FLASH_POINT_DEGC_TEST_PRED>
170.895

>  <MELTING_POINT_DEGC_TEST_PRED>
211.479

>  <AMES_MUTAGENICITY_TEST_PRED>
0.854

>  <ORAL_RAT_LD50_MOL/KG_TEST_PRED>
0.00755092

>  <SURFACE_TENSION_DYN/CM_TEST_PRED>
-

>  <THERMAL_CONDUCTIVITY_MW/(M*K)_TEST_PRED>
-

>  <TETRAHYMENA_PYRIFORMIS_IGC50_MOL/L_TEST_PRED>
0.00012735

>  <VISCOSITY_CP_CP_TEST_PRED>
-

>  <VAPOR_PRESSURE_MMHG_TEST_PRED>
4.50E-07

>  <WATER_SOLUBILITY_MOL/L_TEST_PRED>
0.000206063

>  <ATMOSPHERIC_HYDROXYLATION_RATE_(AOH)_CM3/MOLECULE*SEC_OPERA_PRED>
4.31E-11

>  <BIOCONCENTRATION_FACTOR_OPERA_PRED>
7.3161

>  <BIODEGRADATION_HALF_LIFE_DAYS_DAYS_OPERA_PRED>
3.36124

>  <BOILING_POINT_DEGC_OPERA_PRED>
325.968

>  <HENRYS_LAW_ATM-M3/MOLE_OPERA_PRED>
1.41E-07

>  <OPERA_KM_DAYS_OPERA_PRED>
0.127628

>  <OCTANOL_AIR_PARTITION_COEFF_LOGKOA_OPERA_PRED>
9.38301

>  <SOIL_ADSORPTION_COEFFICIENT_KOC_L/KG_OPERA_PRED>
4991.96

>  <OCTANOL_WATER_PARTITION_LOGP_OPERA_PRED>
2.66885

>  <MELTING_POINT_DEGC_OPERA_PRED>
131.013

>  <VAPOR_PRESSURE_MMHG_OPERA_PRED>
4.86E-07

>  <WATER_SOLUBILITY_MOL/L_OPERA_PRED>
0.000392213

>  <Shape Index>
0.57143

>  <Molecular Flexibility>
0.27453

>  <Molecular Complexity>
0.71194

>  <Electronegative Atoms>
3

>  <Stereo Centers>
0

>  <Rotatable Bonds>
1

>  <Rings Closures>
3

>  <Aromatic Rings>
3

>  <Aromatic Atoms>
14

>  <Amides>
0

>  <Amines>
0

>  <Aromatic Nitrogens>
2

>  <Shape Index 2>
0.57143

>  <Molecular Flexibility 2>
0.27453

>  <Molecular Complexity 2>
0.71194

>  <Non-C/H Atoms>
3

>  <Electronegative Atoms 2>
3

>  <Stereo Centers 2>
0

>  <Rotatable Bonds 2>
1

>  <Rings Closures 2>
3

>  <Aromatic Rings 2>
3

>  <Aromatic Atoms 2>
14

>  <sp3-Atoms>
0

>  <Amides 2>
0

>  <Amines 2>
0

>  <Aromatic Nitrogens 2>
2

>  <Basic Nitrogens>
1

$$$$
1,2,7,9-Tetrachlorodibenzo-p-dioxin
Actelion Java MolfileCreator 2.0

  0  0  0  0  0  0              0 V3000
M  V30 BEGIN CTAB
M  V30 COUNTS 18 20 0 0 0
M  V30 BEGIN ATOM
M  V30 1 Cl 0.0 0.0 0.0 0
M  V30 2 C -1.3066 -0.7298 0.0 0
M  V30 3 C -2.6133 0.0235 0.0 0
M  V30 4 C -1.3184 -2.2131 0.0 0
M  V30 5 O -2.6251 1.5303 0.0 0
M  V30 6 C -3.92 -0.7063 0.0 0
M  V30 7 Cl -0.0353 -2.9429 0.0 0
M  V30 8 C -2.6251 -2.9429 0.0 0
M  V30 9 C -3.9318 2.2837 0.0 0
M  V30 10 O -5.2267 0.047 0.0 0
M  V30 11 C -3.9318 -2.1895 0.0 0
M  V30 12 C -3.9435 3.7905 0.0 0
M  V30 13 C -5.2385 1.5538 0.0 0
M  V30 14 Cl -2.6604 4.5439 0.0 0
M  V30 15 C -5.2502 4.5439 0.0 0
M  V30 16 C -6.5451 2.3072 0.0 0
M  V30 17 C -6.5569 3.8141 0.0 0
M  V30 18 Cl -7.8636 4.5675 0.0 0
M  V30 END ATOM
M  V30 BEGIN BOND
M  V30 1 1 1 2
M  V30 2 2 2 3
M  V30 3 1 2 4
M  V30 4 1 3 5
M  V30 5 1 3 6
M  V30 6 1 4 7
M  V30 7 2 4 8
M  V30 8 1 5 9
M  V30 9 1 6 10
M  V30 10 2 6 11
M  V30 11 2 9 12
M  V30 12 1 9 13
M  V30 13 1 12 14
M  V30 14 1 12 15
M  V30 15 2 13 16
M  V30 16 2 15 17
M  V30 17 1 17 18
M  V30 18 1 8 11
M  V30 19 1 10 13
M  V30 20 1 16 17
M  V30 END BOND
M  V30 END CTAB
M  END
>  <Molecule Name>
1,2,7,9-Tetrachlorodibenzo-p-dioxin

>  <Order (spectra)>
55

>  <NAME>
1,2,7,9-Tetrachlorodibenzo-p-dioxin

>  <Molecular Formula>
C12H4O2Cl4

>  <Monoisotopic Mass>
319.896538

>  <SMILES>
ClC1=CC2=C(OC3=C(Cl)C(Cl)=CC=C3O2)C(Cl)=C1

>  <InChI>
InChI=1S/C12H4Cl4O2/c13-5-3-7(15)11-9(4-5)17-8-2-1-6(14)10(16)12(8)18-11/h1-4H

>  <InChIKey>
QIKHBBZEUNSCAF-UHFFFAOYSA-N

>  <Kingdom>
Organic compounds

>  <Superclass>
Organoheterocyclic compounds

>  <Class>
Benzodioxins

>  <Subclass>
Benzo-p-dioxins

>  <Parent Level 1>
Dibenzo-p-dioxins

>  <Parent Level 2>
Chlorinated dibenzo-p-dioxins

>  <Parent Level 3>


>  <cLogP>
6.1238

>  <cLogS>
-8.068

>  <Druglikeness>
-2.0981

>  <NP-class probability>
0.14

>  <SmilesFragFp 3>


>  <MS_READY_SMILES>
ClC1=CC2=C(OC3=C(Cl)C(Cl)=CC=C3O2)C(Cl)=C1

>  <MS_READY_InChI>
InChI=1S/C12H4Cl4O2/c13-5-3-7(15)11-9(4-5)17-8-2-1-6(14)10(16)12(8)18-11/h1-4H

>  <QSAR_READY_SMILES>
ClC1=CC2=C(OC3=C(Cl)C(Cl)=CC=C3O2)C(Cl)=C1

>  <QSAR_READY_InChI>
InChI=1S/C12H4Cl4O2/c13-5-3-7(15)11-9(4-5)17-8-2-1-6(14)10(16)12(8)18-11/h1-4H

>  <DTXSID>
DTXSID2074087

>  <DTXCID>
DTXCID0047082

>  <CASRN>
71669-23-3

>  <EXPOCAST_MEDIAN_EXPOSURE_PREDICTION_MG/KG-BW/DAY>
6.40E-08

>  <BIOCONCENTRATION_FACTOR_TEST_PRED>
3040.89

>  <BOILING_POINT_DEGC_TEST_PRED>
397.376

>  <48HR_DAPHNIA_LC50_MOL/L_TEST_PRED>
2.69E-07

>  <DENSITY_G/CM^3_TEST_PRED>
1.643

>  <DEVTOX_TEST_PRED>
0.532

>  <96HR_FATHEAD_MINNOW_MOL/L_TEST_PRED>
3.70E-07

>  <FLASH_POINT_DEGC_TEST_PRED>
163.417

>  <MELTING_POINT_DEGC_TEST_PRED>
174.427

>  <AMES_MUTAGENICITY_TEST_PRED>
0.386

>  <ORAL_RAT_LD50_MOL/KG_TEST_PRED>
2.86E-06

>  <SURFACE_TENSION_DYN/CM_TEST_PRED>
-

>  <THERMAL_CONDUCTIVITY_MW/(M*K)_TEST_PRED>
117.09

>  <TETRAHYMENA_PYRIFORMIS_IGC50_MOL/L_TEST_PRED>
9.91E-07

>  <VISCOSITY_CP_CP_TEST_PRED>
-

>  <VAPOR_PRESSURE_MMHG_TEST_PRED>
7.11E-09

>  <WATER_SOLUBILITY_MOL/L_TEST_PRED>
3.77E-09

>  <ATMOSPHERIC_HYDROXYLATION_RATE_(AOH)_CM3/MOLECULE*SEC_OPERA_PRED>
7.29E-11

>  <BIOCONCENTRATION_FACTOR_OPERA_PRED>
2890.32

>  <BIODEGRADATION_HALF_LIFE_DAYS_DAYS_OPERA_PRED>
41

>  <BOILING_POINT_DEGC_OPERA_PRED>
357.568

>  <HENRYS_LAW_ATM-M3/MOLE_OPERA_PRED>
2.53E-07

>  <OPERA_KM_DAYS_OPERA_PRED>
7.24447

>  <OCTANOL_AIR_PARTITION_COEFF_LOGKOA_OPERA_PRED>
8.83123

>  <SOIL_ADSORPTION_COEFFICIENT_KOC_L/KG_OPERA_PRED>
155561

>  <OCTANOL_WATER_PARTITION_LOGP_OPERA_PRED>
6.32434

>  <MELTING_POINT_DEGC_OPERA_PRED>
181.495

>  <VAPOR_PRESSURE_MMHG_OPERA_PRED>
3.41E-07

>  <WATER_SOLUBILITY_MOL/L_OPERA_PRED>
3.56E-07

>  <Shape Index>
0.55556

>  <Molecular Flexibility>
0.047226

>  <Molecular Complexity>
0.84708

>  <Electronegative Atoms>
6

>  <Stereo Centers>
0

>  <Rotatable Bonds>
0

>  <Rings Closures>
3

>  <Aromatic Rings>
2

>  <Aromatic Atoms>
12

>  <Amides>
0

>  <Amines>
0

>  <Aromatic Nitrogens>
0

>  <Shape Index 2>
0.55556

>  <Molecular Flexibility 2>
0.047226

>  <Molecular Complexity 2>
0.84708

>  <Non-C/H Atoms>
6

>  <Electronegative Atoms 2>
6

>  <Stereo Centers 2>
0

>  <Rotatable Bonds 2>
0

>  <Rings Closures 2>
3

>  <Aromatic Rings 2>
2

>  <Aromatic Atoms 2>
12

>  <sp3-Atoms>
2

>  <Amides 2>
0

>  <Amines 2>
0

>  <Aromatic Nitrogens 2>
0

>  <Basic Nitrogens>
0

$$$$
1,2,3,4,7,8-Hexachlorodibenzo-p-dioxin
Actelion Java MolfileCreator 2.0

  0  0  0  0  0  0              0 V3000
M  V30 BEGIN CTAB
M  V30 COUNTS 20 22 0 0 0
M  V30 BEGIN ATOM
M  V30 1 Cl 0.0 0.0 0.0 0
M  V30 2 C -1.3113 -0.7324 0.0 0
M  V30 3 C -2.6227 0.0236 0.0 0
M  V30 4 C -1.3232 -2.2211 0.0 0
M  V30 5 Cl -2.6346 1.5358 0.0 0
M  V30 6 C -3.9341 -0.7088 0.0 0
M  V30 7 Cl -0.0354 -2.9535 0.0 0
M  V30 8 C -2.6346 -2.9535 0.0 0
M  V30 9 Cl -5.2455 0.0472 0.0 0
M  V30 10 C -3.9459 -2.1974 0.0 0
M  V30 11 O -2.6464 -4.4422 0.0 0
M  V30 12 O -5.2573 -2.9299 0.0 0
M  V30 13 C -3.9578 -5.1746 0.0 0
M  V30 14 C -5.2692 -4.4185 0.0 0
M  V30 15 C -3.9696 -6.6633 0.0 0
M  V30 16 C -6.5806 -5.151 0.0 0
M  V30 17 C -5.281 -7.3957 0.0 0
M  V30 18 C -6.5924 -6.6396 0.0 0
M  V30 19 Cl -5.2928 -8.8844 0.0 0
M  V30 20 Cl -7.9038 -7.3721 0.0 0
M  V30 END ATOM
M  V30 BEGIN BOND
M  V30 1 1 1 2
M  V30 2 2 2 3
M  V30 3 1 2 4
M  V30 4 1 3 5
M  V30 5 1 3 6
M  V30 6 1 4 7
M  V30 7 2 4 8
M  V30 8 1 6 9
M  V30 9 2 6 10
M  V30 10 1 8 11
M  V30 11 1 10 12
M  V30 12 1 11 13
M  V30 13 1 12 14
M  V30 14 1 13 15
M  V30 15 1 14 16
M  V30 16 2 15 17
M  V30 17 2 16 18
M  V30 18 1 17 19
M  V30 19 1 18 20
M  V30 20 1 8 10
M  V30 21 2 13 14
M  V30 22 1 17 18
M  V30 END BOND
M  V30 END CTAB
M  END
>  <Molecule Name>
1,2,3,4,7,8-Hexachlorodibenzo-p-dioxin

>  <Order (spectra)>
101

>  <NAME>
1,2,3,4,7,8-Hexachlorodibenzo-p-dioxin

>  <Molecular Formula>
C12H2O2Cl6

>  <Monoisotopic Mass>
387.818592

>  <SMILES>
ClC1=C(Cl)C=C2OC3=C(OC2=C1)C(Cl)=C(Cl)C(Cl)=C3Cl

>  <InChI>
InChI=1S/C12H2Cl6O2/c13-3-1-5-6(2-4(3)14)20-12-10(18)8(16)7(15)9(17)11(12)19-5/h1-2H

>  <InChIKey>
WCYYQNSQJHPVMG-UHFFFAOYSA-N

>  <Kingdom>
Organic compounds

>  <Superclass>
Organoheterocyclic compounds

>  <Class>
Benzodioxins

>  <Subclass>
Benzo-p-dioxins

>  <Parent Level 1>
Dibenzo-p-dioxins

>  <Parent Level 2>
Chlorinated dibenzo-p-dioxins

>  <Parent Level 3>


>  <cLogP>
7.3358

>  <cLogS>
-9.54

>  <Druglikeness>
-2.0981

>  <NP-class probability>
0.14

>  <SmilesFragFp 3>


>  <MS_READY_SMILES>
ClC1=C(Cl)C=C2OC3=C(OC2=C1)C(Cl)=C(Cl)C(Cl)=C3Cl

>  <MS_READY_InChI>
InChI=1S/C12H2Cl6O2/c13-3-1-5-6(2-4(3)14)20-12-10(18)8(16)7(15)9(17)11(12)19-5/h1-2H

>  <QSAR_READY_SMILES>
ClC1=C(Cl)C=C2OC3=C(OC2=C1)C(Cl)=C(Cl)C(Cl)=C3Cl

>  <QSAR_READY_InChI>
InChI=1S/C12H2Cl6O2/c13-3-1-5-6(2-4(3)14)20-12-10(18)8(16)7(15)9(17)11(12)19-5/h1-2H

>  <DTXSID>
DTXSID8052067

>  <DTXCID>
DTXCID3030634

>  <CASRN>
39227-28-6

>  <EXPOCAST_MEDIAN_EXPOSURE_PREDICTION_MG/KG-BW/DAY>
1.85E-08

>  <BIOCONCENTRATION_FACTOR_TEST_PRED>
14825.2

>  <BOILING_POINT_DEGC_TEST_PRED>
429.853

>  <48HR_DAPHNIA_LC50_MOL/L_TEST_PRED>
6.01E-08

>  <DENSITY_G/CM^3_TEST_PRED>
1.789

>  <DEVTOX_TEST_PRED>
0.513

>  <96HR_FATHEAD_MINNOW_MOL/L_TEST_PRED>
5.31E-08

>  <FLASH_POINT_DEGC_TEST_PRED>
182.656

>  <MELTING_POINT_DEGC_TEST_PRED>
239.332

>  <AMES_MUTAGENICITY_TEST_PRED>
0.131

>  <ORAL_RAT_LD50_MOL/KG_TEST_PRED>
2.64E-06

>  <SURFACE_TENSION_DYN/CM_TEST_PRED>
-

>  <THERMAL_CONDUCTIVITY_MW/(M*K)_TEST_PRED>
111.518

>  <TETRAHYMENA_PYRIFORMIS_IGC50_MOL/L_TEST_PRED>
6.11E-07

>  <VISCOSITY_CP_CP_TEST_PRED>
-

>  <VAPOR_PRESSURE_MMHG_TEST_PRED>
1.24E-10

>  <WATER_SOLUBILITY_MOL/L_TEST_PRED>
6.53E-11

>  <ATMOSPHERIC_HYDROXYLATION_RATE_(AOH)_CM3/MOLECULE*SEC_OPERA_PRED>
3.41E-12

>  <BIOCONCENTRATION_FACTOR_OPERA_PRED>
9860.17

>  <BIODEGRADATION_HALF_LIFE_DAYS_DAYS_OPERA_PRED>
20.3294

>  <BOILING_POINT_DEGC_OPERA_PRED>
409.232

>  <HENRYS_LAW_ATM-M3/MOLE_OPERA_PRED>
6.93E-05

>  <OPERA_KM_DAYS_OPERA_PRED>
18.5372

>  <OCTANOL_AIR_PARTITION_COEFF_LOGKOA_OPERA_PRED>
10.6799

>  <SOIL_ADSORPTION_COEFFICIENT_KOC_L/KG_OPERA_PRED>
1739480

>  <OCTANOL_WATER_PARTITION_LOGP_OPERA_PRED>
7.79638

>  <MELTING_POINT_DEGC_OPERA_PRED>
272.57

>  <VAPOR_PRESSURE_MMHG_OPERA_PRED>
3.86E-11

>  <WATER_SOLUBILITY_MOL/L_OPERA_PRED>
3.57E-11

>  <Shape Index>
0.5

>  <Molecular Flexibility>
0.046767

>  <Molecular Complexity>
0.8577

>  <Electronegative Atoms>
8

>  <Stereo Centers>
0

>  <Rotatable Bonds>
0

>  <Rings Closures>
3

>  <Aromatic Rings>
2

>  <Aromatic Atoms>
12

>  <Amides>
0

>  <Amines>
0

>  <Aromatic Nitrogens>
0

>  <Shape Index 2>
0.5

>  <Molecular Flexibility 2>
0.046767

>  <Molecular Complexity 2>
0.8577

>  <Non-C/H Atoms>
8

>  <Electronegative Atoms 2>
8

>  <Stereo Centers 2>
0

>  <Rotatable Bonds 2>
0

>  <Rings Closures 2>
3

>  <Aromatic Rings 2>
2

>  <Aromatic Atoms 2>
12

>  <sp3-Atoms>
2

>  <Amides 2>
0

>  <Amines 2>
0

>  <Aromatic Nitrogens 2>
0

>  <Basic Nitrogens>
0

$$$$
1,2,3,4,6,7,8-Heptachlorodibenzo-p-dioxin
Actelion Java MolfileCreator 2.0

  0  0  0  0  0  0              0 V3000
M  V30 BEGIN CTAB
M  V30 COUNTS 21 23 0 0 0
M  V30 BEGIN ATOM
M  V30 1 Cl 0.0 0.0 0.0 0
M  V30 2 C -1.312 -0.7328 0.0 0
M  V30 3 C -2.6241 0.0236 0.0 0
M  V30 4 C -1.3239 -2.2222 0.0 0
M  V30 5 Cl -2.636 1.5366 0.0 0
M  V30 6 C -3.9362 -0.7092 0.0 0
M  V30 7 Cl -0.0354 -2.9551 0.0 0
M  V30 8 C -2.636 -2.9551 0.0 0
M  V30 9 Cl -5.2483 0.0472 0.0 0
M  V30 10 C -3.9481 -2.1986 0.0 0
M  V30 11 O -2.6478 -4.4445 0.0 0
M  V30 12 O -5.2602 -2.9315 0.0 0
M  V30 13 C -3.9599 -5.1774 0.0 0
M  V30 14 C -5.272 -4.4209 0.0 0
M  V30 15 C -3.9717 -6.6668 0.0 0
M  V30 16 C -6.5841 -5.1538 0.0 0
M  V30 17 Cl -2.6832 -7.3997 0.0 0
M  V30 18 C -5.2838 -7.3997 0.0 0
M  V30 19 C -6.5959 -6.6432 0.0 0
M  V30 20 Cl -5.2956 -8.8891 0.0 0
M  V30 21 Cl -7.908 -7.3761 0.0 0
M  V30 END ATOM
M  V30 BEGIN BOND
M  V30 1 1 1 2
M  V30 2 2 2 3
M  V30 3 1 2 4
M  V30 4 1 3 5
M  V30 5 1 3 6
M  V30 6 1 4 7
M  V30 7 2 4 8
M  V30 8 1 6 9
M  V30 9 2 6 10
M  V30 10 1 8 11
M  V30 11 1 10 12
M  V30 12 1 11 13
M  V30 13 1 12 14
M  V30 14 1 13 15
M  V30 15 1 14 16
M  V30 16 1 15 17
M  V30 17 2 15 18
M  V30 18 2 16 19
M  V30 19 1 18 20
M  V30 20 1 19 21
M  V30 21 1 8 10
M  V30 22 2 13 14
M  V30 23 1 18 19
M  V30 END BOND
M  V30 END CTAB
M  END
>  <Molecule Name>
1,2,3,4,6,7,8-Heptachlorodibenzo-p-dioxin

>  <Order (spectra)>
102

>  <NAME>
1,2,3,4,6,7,8-Heptachlorodibenzo-p-dioxin

>  <Molecular Formula>
C12HO2Cl7

>  <Monoisotopic Mass>
421.779619

>  <SMILES>
ClC1=C(Cl)C(Cl)=C2OC3=C(OC2=C1)C(Cl)=C(Cl)C(Cl)=C3Cl

>  <InChI>
InChI=1S/C12HCl7O2/c13-2-1-3-10(7(17)4(2)14)21-12-9(19)6(16)5(15)8(18)11(12)20-3/h1H

>  <InChIKey>
WCLNVRQZUKYVAI-UHFFFAOYSA-N

>  <Kingdom>
Organic compounds

>  <Superclass>
Organoheterocyclic compounds

>  <Class>
Benzodioxins

>  <Subclass>
Benzo-p-dioxins

>  <Parent Level 1>
Dibenzo-p-dioxins

>  <Parent Level 2>
Chlorinated dibenzo-p-dioxins

>  <Parent Level 3>


>  <cLogP>
7.9418

>  <cLogS>
-10.276

>  <Druglikeness>
-2.0981

>  <NP-class probability>
0.14

>  <SmilesFragFp 3>


>  <MS_READY_SMILES>
ClC1=C(Cl)C(Cl)=C2OC3=C(OC2=C1)C(Cl)=C(Cl)C(Cl)=C3Cl

>  <MS_READY_InChI>
InChI=1S/C12HCl7O2/c13-2-1-3-10(7(17)4(2)14)21-12-9(19)6(16)5(15)8(18)11(12)20-3/h1H

>  <QSAR_READY_SMILES>
ClC1=C(Cl)C(Cl)=C2OC3=C(OC2=C1)C(Cl)=C(Cl)C(Cl)=C3Cl

>  <QSAR_READY_InChI>
InChI=1S/C12HCl7O2/c13-2-1-3-10(7(17)4(2)14)21-12-9(19)6(16)5(15)8(18)11(12)20-3/h1H

>  <DTXSID>
DTXSID1052034

>  <DTXCID>
DTXCID5032442

>  <CASRN>
35822-46-9

>  <EXPOCAST_MEDIAN_EXPOSURE_PREDICTION_MG/KG-BW/DAY>
2.35E-08

>  <BIOCONCENTRATION_FACTOR_TEST_PRED>
21232.4

>  <BOILING_POINT_DEGC_TEST_PRED>
445.028

>  <48HR_DAPHNIA_LC50_MOL/L_TEST_PRED>
3.27E-08

>  <DENSITY_G/CM^3_TEST_PRED>
1.862

>  <DEVTOX_TEST_PRED>
0.605

>  <96HR_FATHEAD_MINNOW_MOL/L_TEST_PRED>
1.93E-08

>  <FLASH_POINT_DEGC_TEST_PRED>
192.686

>  <MELTING_POINT_DEGC_TEST_PRED>
241.606

>  <AMES_MUTAGENICITY_TEST_PRED>
0.194

>  <ORAL_RAT_LD50_MOL/KG_TEST_PRED>
1.87E-06

>  <SURFACE_TENSION_DYN/CM_TEST_PRED>
-

>  <THERMAL_CONDUCTIVITY_MW/(M*K)_TEST_PRED>
110.188

>  <TETRAHYMENA_PYRIFORMIS_IGC50_MOL/L_TEST_PRED>
-

>  <VISCOSITY_CP_CP_TEST_PRED>
-

>  <VAPOR_PRESSURE_MMHG_TEST_PRED>
3.52E-11

>  <WATER_SOLUBILITY_MOL/L_TEST_PRED>
1.64E-11

>  <ATMOSPHERIC_HYDROXYLATION_RATE_(AOH)_CM3/MOLECULE*SEC_OPERA_PRED>
2.44E-12

>  <BIOCONCENTRATION_FACTOR_OPERA_PRED>
4679.68

>  <BIODEGRADATION_HALF_LIFE_DAYS_DAYS_OPERA_PRED>
71.2326

>  <BOILING_POINT_DEGC_OPERA_PRED>
439.91

>  <HENRYS_LAW_ATM-M3/MOLE_OPERA_PRED>
0.000337262

>  <OPERA_KM_DAYS_OPERA_PRED>
16.2208

>  <OCTANOL_AIR_PARTITION_COEFF_LOGKOA_OPERA_PRED>
11.3171

>  <SOIL_ADSORPTION_COEFFICIENT_KOC_L/KG_OPERA_PRED>
1709740

>  <OCTANOL_WATER_PARTITION_LOGP_OPERA_PRED>
8.19967

>  <MELTING_POINT_DEGC_OPERA_PRED>
263.982

>  <VAPOR_PRESSURE_MMHG_OPERA_PRED>
1.26E-07

>  <WATER_SOLUBILITY_MOL/L_OPERA_PRED>
5.17E-12

>  <Shape Index>
0.47619

>  <Molecular Flexibility>
0.043177

>  <Molecular Complexity>
0.88637

>  <Electronegative Atoms>
9

>  <Stereo Centers>
0

>  <Rotatable Bonds>
0

>  <Rings Closures>
3

>  <Aromatic Rings>
2

>  <Aromatic Atoms>
12

>  <Amides>
0

>  <Amines>
0

>  <Aromatic Nitrogens>
0

>  <Shape Index 2>
0.47619

>  <Molecular Flexibility 2>
0.043177

>  <Molecular Complexity 2>
0.88637

>  <Non-C/H Atoms>
9

>  <Electronegative Atoms 2>
9

>  <Stereo Centers 2>
0

>  <Rotatable Bonds 2>
0

>  <Rings Closures 2>
3

>  <Aromatic Rings 2>
2

>  <Aromatic Atoms 2>
12

>  <sp3-Atoms>
2

>  <Amides 2>
0

>  <Amines 2>
0

>  <Aromatic Nitrogens 2>
0

>  <Basic Nitrogens>
0

$$$$
Octachlorodibenzo-p-dioxin
Actelion Java MolfileCreator 2.0

  0  0  0  0  0  0              0 V3000
M  V30 BEGIN CTAB
M  V30 COUNTS 22 24 0 0 0
M  V30 BEGIN ATOM
M  V30 1 Cl 0.0 0.0 0.0 0
M  V30 2 C -1.3115 -0.7325 0.0 0
M  V30 3 C -2.6231 0.0236 0.0 0
M  V30 4 C -1.3233 -2.2213 0.0 0
M  V30 5 Cl -2.6349 1.536 0.0 0
M  V30 6 C -3.9347 -0.7089 0.0 0
M  V30 7 Cl -0.0354 -2.9539 0.0 0
M  V30 8 C -2.6349 -2.9539 0.0 0
M  V30 9 Cl -5.2462 0.0472 0.0 0
M  V30 10 C -3.9465 -2.1977 0.0 0
M  V30 11 O -2.6467 -4.4427 0.0 0
M  V30 12 O -5.258 -2.9303 0.0 0
M  V30 13 C -3.9583 -5.1753 0.0 0
M  V30 14 C -5.2699 -4.4191 0.0 0
M  V30 15 C -3.9701 -6.6641 0.0 0
M  V30 16 C -6.5814 -5.1517 0.0 0
M  V30 17 Cl -2.6822 -7.3967 0.0 0
M  V30 18 C -5.2817 -7.3967 0.0 0
M  V30 19 Cl -7.893 -4.3955 0.0 0
M  V30 20 C -6.5932 -6.6405 0.0 0
M  V30 21 Cl -5.2935 -8.8855 0.0 0
M  V30 22 Cl -7.9048 -7.3731 0.0 0
M  V30 END ATOM
M  V30 BEGIN BOND
M  V30 1 1 1 2
M  V30 2 2 2 3
M  V30 3 1 2 4
M  V30 4 1 3 5
M  V30 5 1 3 6
M  V30 6 1 4 7
M  V30 7 2 4 8
M  V30 8 1 6 9
M  V30 9 2 6 10
M  V30 10 1 8 11
M  V30 11 1 10 12
M  V30 12 1 11 13
M  V30 13 1 12 14
M  V30 14 1 13 15
M  V30 15 1 14 16
M  V30 16 1 15 17
M  V30 17 2 15 18
M  V30 18 1 16 19
M  V30 19 2 16 20
M  V30 20 1 18 21
M  V30 21 1 20 22
M  V30 22 1 8 10
M  V30 23 2 13 14
M  V30 24 1 18 20
M  V30 END BOND
M  V30 END CTAB
M  END
>  <Molecule Name>
Octachlorodibenzo-p-dioxin

>  <Order (spectra)>
103

>  <NAME>
Octachlorodibenzo-p-dioxin

>  <Molecular Formula>
C12O2Cl8

>  <Monoisotopic Mass>
455.740646

>  <SMILES>
ClC1=C(Cl)C2=C(OC3=C(Cl)C(Cl)=C(Cl)C(Cl)=C3O2)C(Cl)=C1Cl

>  <InChI>
InChI=1S/C12Cl8O2/c13-1-2(14)6(18)10-9(5(1)17)21-11-7(19)3(15)4(16)8(20)12(11)22-10

>  <InChIKey>
FOIBFBMSLDGNHL-UHFFFAOYSA-N

>  <Kingdom>
Organic compounds

>  <Superclass>
Organoheterocyclic compounds

>  <Class>
Benzodioxins

>  <Subclass>
Benzo-p-dioxins

>  <Parent Level 1>
Dibenzo-p-dioxins

>  <Parent Level 2>
Chlorinated dibenzo-p-dioxins

>  <Parent Level 3>


>  <cLogP>
8.5478

>  <cLogS>
-11.012

>  <Druglikeness>
-2.0981

>  <NP-class probability>
0.14

>  <SmilesFragFp 3>


>  <MS_READY_SMILES>
ClC1=C(Cl)C2=C(OC3=C(Cl)C(Cl)=C(Cl)C(Cl)=C3O2)C(Cl)=C1Cl

>  <MS_READY_InChI>
InChI=1S/C12Cl8O2/c13-1-2(14)6(18)10-9(5(1)17)21-11-7(19)3(15)4(16)8(20)12(11)22-10

>  <QSAR_READY_SMILES>
ClC1=C(Cl)C2=C(OC3=C(Cl)C(Cl)=C(Cl)C(Cl)=C3O2)C(Cl)=C1Cl

>  <QSAR_READY_InChI>
InChI=1S/C12Cl8O2/c13-1-2(14)6(18)10-9(5(1)17)21-11-7(19)3(15)4(16)8(20)12(11)22-10

>  <DTXSID>
DTXSID4025799

>  <DTXCID>
DTXCID205799

>  <CASRN>
3268-87-9

>  <EXPOCAST_MEDIAN_EXPOSURE_PREDICTION_MG/KG-BW/DAY>
2.30E-08

>  <BIOCONCENTRATION_FACTOR_TEST_PRED>
27925.4

>  <BOILING_POINT_DEGC_TEST_PRED>
460.013

>  <48HR_DAPHNIA_LC50_MOL/L_TEST_PRED>
8.34E-09

>  <DENSITY_G/CM^3_TEST_PRED>
1.892

>  <DEVTOX_TEST_PRED>
0.219

>  <96HR_FATHEAD_MINNOW_MOL/L_TEST_PRED>
7.21E-09

>  <FLASH_POINT_DEGC_TEST_PRED>
201.769

>  <MELTING_POINT_DEGC_TEST_PRED>
276.513

>  <AMES_MUTAGENICITY_TEST_PRED>
0.205

>  <ORAL_RAT_LD50_MOL/KG_TEST_PRED>
2.30E-06

>  <SURFACE_TENSION_DYN/CM_TEST_PRED>
-

>  <THERMAL_CONDUCTIVITY_MW/(M*K)_TEST_PRED>
103.329

>  <TETRAHYMENA_PYRIFORMIS_IGC50_MOL/L_TEST_PRED>
-

>  <VISCOSITY_CP_CP_TEST_PRED>
-

>  <VAPOR_PRESSURE_MMHG_TEST_PRED>
9.77E-12

>  <WATER_SOLUBILITY_MOL/L_TEST_PRED>
1.75E-11

>  <ATMOSPHERIC_HYDROXYLATION_RATE_(AOH)_CM3/MOLECULE*SEC_OPERA_PRED>
2.57E-12

>  <BIOCONCENTRATION_FACTOR_OPERA_PRED>
1322.09

>  <BIODEGRADATION_HALF_LIFE_DAYS_DAYS_OPERA_PRED>
148.477

>  <BOILING_POINT_DEGC_OPERA_PRED>
509.899

>  <HENRYS_LAW_ATM-M3/MOLE_OPERA_PRED>
0.00533233

>  <OPERA_KM_DAYS_OPERA_PRED>
14.4644

>  <OCTANOL_AIR_PARTITION_COEFF_LOGKOA_OPERA_PRED>
12.0021

>  <SOIL_ADSORPTION_COEFFICIENT_KOC_L/KG_OPERA_PRED>
700124

>  <OCTANOL_WATER_PARTITION_LOGP_OPERA_PRED>
8.70845

>  <MELTING_POINT_DEGC_OPERA_PRED>
329.918

>  <VAPOR_PRESSURE_MMHG_OPERA_PRED>
8.32E-13

>  <WATER_SOLUBILITY_MOL/L_OPERA_PRED>
3.78E-13

>  <Shape Index>
0.45455

>  <Molecular Flexibility>
0.039508

>  <Molecular Complexity>
0.90297

>  <Electronegative Atoms>
10

>  <Stereo Centers>
0

>  <Rotatable Bonds>
0

>  <Rings Closures>
3

>  <Aromatic Rings>
2

>  <Aromatic Atoms>
12

>  <Amides>
0

>  <Amines>
0

>  <Aromatic Nitrogens>
0

>  <Shape Index 2>
0.45455

>  <Molecular Flexibility 2>
0.039508

>  <Molecular Complexity 2>
0.90297

>  <Non-C/H Atoms>
10

>  <Electronegative Atoms 2>
10

>  <Stereo Centers 2>
0

>  <Rotatable Bonds 2>
0

>  <Rings Closures 2>
3

>  <Aromatic Rings 2>
2

>  <Aromatic Atoms 2>
12

>  <sp3-Atoms>
2

>  <Amides 2>
0

>  <Amines 2>
0

>  <Aromatic Nitrogens 2>
0

>  <Basic Nitrogens>
0

$$$$
2,3,7,8-Tetrachlorodibenzo-p-dioxin
Actelion Java MolfileCreator 2.0

  0  0  0  0  0  0              0 V3000
M  V30 BEGIN CTAB
M  V30 COUNTS 18 20 0 0 0
M  V30 BEGIN ATOM
M  V30 1 Cl 0.0 0.0 0.0 0
M  V30 2 C -1.3111 -0.7323 0.0 0
M  V30 3 C -2.6223 0.0236 0.0 0
M  V30 4 C -1.323 -2.2207 0.0 0
M  V30 5 Cl -2.6341 1.5356 0.0 0
M  V30 6 C -3.9335 -0.7087 0.0 0
M  V30 7 C -2.6341 -2.9531 0.0 0
M  V30 8 C -3.9453 -2.1971 0.0 0
M  V30 9 O -2.646 -4.4415 0.0 0
M  V30 10 O -5.2565 -2.9295 0.0 0
M  V30 11 C -3.9571 -5.1738 0.0 0
M  V30 12 C -5.2683 -4.4178 0.0 0
M  V30 13 C -3.969 -6.6622 0.0 0
M  V30 14 C -6.5795 -5.1502 0.0 0
M  V30 15 C -5.2801 -7.3946 0.0 0
M  V30 16 C -6.5913 -6.6386 0.0 0
M  V30 17 Cl -5.292 -8.883 0.0 0
M  V30 18 Cl -7.9025 -7.371 0.0 0
M  V30 END ATOM
M  V30 BEGIN BOND
M  V30 1 1 1 2
M  V30 2 2 2 3
M  V30 3 1 2 4
M  V30 4 1 3 5
M  V30 5 1 3 6
M  V30 6 2 4 7
M  V30 7 2 6 8
M  V30 8 1 7 9
M  V30 9 1 8 10
M  V30 10 1 9 11
M  V30 11 1 10 12
M  V30 12 1 11 13
M  V30 13 1 12 14
M  V30 14 2 13 15
M  V30 15 2 14 16
M  V30 16 1 15 17
M  V30 17 1 16 18
M  V30 18 1 7 8
M  V30 19 2 11 12
M  V30 20 1 15 16
M  V30 END BOND
M  V30 END CTAB
M  END
>  <Molecule Name>
2,3,7,8-Tetrachlorodibenzo-p-dioxin

>  <Order (spectra)>
109

>  <NAME>
2,3,7,8-Tetrachlorodibenzo-p-dioxin

>  <Molecular Formula>
C12H4O2Cl4

>  <Monoisotopic Mass>
319.896538

>  <SMILES>
ClC1=CC2=C(OC3=C(O2)C=C(Cl)C(Cl)=C3)C=C1Cl

>  <InChI>
InChI=1S/C12H4Cl4O2/c13-5-1-9-10(2-6(5)14)18-12-4-8(16)7(15)3-11(12)17-9/h1-4H

>  <InChIKey>
HGUFODBRKLSHSI-UHFFFAOYSA-N

>  <Kingdom>
Organic compounds

>  <Superclass>
Organoheterocyclic compounds

>  <Class>
Benzodioxins

>  <Subclass>
Benzo-p-dioxins

>  <Parent Level 1>
Dibenzo-p-dioxins

>  <Parent Level 2>
Chlorinated dibenzo-p-dioxins

>  <Parent Level 3>


>  <cLogP>
6.1238

>  <cLogS>
-8.068

>  <Druglikeness>
-2.0981

>  <NP-class probability>
0.14

>  <SmilesFragFp 3>


>  <MS_READY_SMILES>
ClC1=CC2=C(OC3=C(O2)C=C(Cl)C(Cl)=C3)C=C1Cl

>  <MS_READY_InChI>
InChI=1S/C12H4Cl4O2/c13-5-1-9-10(2-6(5)14)18-12-4-8(16)7(15)3-11(12)17-9/h1-4H

>  <QSAR_READY_SMILES>
ClC1=CC2=C(OC3=C(O2)C=C(Cl)C(Cl)=C3)C=C1Cl

>  <QSAR_READY_InChI>
InChI=1S/C12H4Cl4O2/c13-5-1-9-10(2-6(5)14)18-12-4-8(16)7(15)3-11(12)17-9/h1-4H

>  <DTXSID>
DTXSID2021315

>  <DTXCID>
DTXCID001315

>  <CASRN>
1746-01-6

>  <EXPOCAST_MEDIAN_EXPOSURE_PREDICTION_MG/KG-BW/DAY>
2.33E-09

>  <BIOCONCENTRATION_FACTOR_TEST_PRED>
4720.63

>  <BOILING_POINT_DEGC_TEST_PRED>
397.401

>  <48HR_DAPHNIA_LC50_MOL/L_TEST_PRED>
2.61E-07

>  <DENSITY_G/CM^3_TEST_PRED>
1.605

>  <DEVTOX_TEST_PRED>
0.427

>  <96HR_FATHEAD_MINNOW_MOL/L_TEST_PRED>
3.97E-07

>  <FLASH_POINT_DEGC_TEST_PRED>
161.522

>  <MELTING_POINT_DEGC_TEST_PRED>
223.135

>  <AMES_MUTAGENICITY_TEST_PRED>
0.138

>  <ORAL_RAT_LD50_MOL/KG_TEST_PRED>
2.45E-06

>  <SURFACE_TENSION_DYN/CM_TEST_PRED>
-

>  <THERMAL_CONDUCTIVITY_MW/(M*K)_TEST_PRED>
118.473

>  <TETRAHYMENA_PYRIFORMIS_IGC50_MOL/L_TEST_PRED>
1.60E-06

>  <VISCOSITY_CP_CP_TEST_PRED>
-

>  <VAPOR_PRESSURE_MMHG_TEST_PRED>
2.12E-09

>  <WATER_SOLUBILITY_MOL/L_TEST_PRED>
1.78E-09

>  <ATMOSPHERIC_HYDROXYLATION_RATE_(AOH)_CM3/MOLECULE*SEC_OPERA_PRED>
2.08E-12

>  <BIOCONCENTRATION_FACTOR_OPERA_PRED>
95540.1

>  <BIODEGRADATION_HALF_LIFE_DAYS_DAYS_OPERA_PRED>
15.6991

>  <BOILING_POINT_DEGC_OPERA_PRED>
385.048

>  <HENRYS_LAW_ATM-M3/MOLE_OPERA_PRED>
9.12E-06

>  <OPERA_KM_DAYS_OPERA_PRED>
60.1008

>  <OCTANOL_AIR_PARTITION_COEFF_LOGKOA_OPERA_PRED>
9.97709

>  <SOIL_ADSORPTION_COEFFICIENT_KOC_L/KG_OPERA_PRED>
3154070

>  <OCTANOL_WATER_PARTITION_LOGP_OPERA_PRED>
6.60893

>  <MELTING_POINT_DEGC_OPERA_PRED>
303.134

>  <VAPOR_PRESSURE_MMHG_OPERA_PRED>
1.52E-09

>  <WATER_SOLUBILITY_MOL/L_OPERA_PRED>
3.12E-10

>  <Shape Index>
0.55556

>  <Molecular Flexibility>
0.053802

>  <Molecular Complexity>
0.79818

>  <Electronegative Atoms>
6

>  <Stereo Centers>
0

>  <Rotatable Bonds>
0

>  <Rings Closures>
3

>  <Aromatic Rings>
2

>  <Aromatic Atoms>
12

>  <Amides>
0

>  <Amines>
0

>  <Aromatic Nitrogens>
0

>  <Shape Index 2>
0.55556

>  <Molecular Flexibility 2>
0.053802

>  <Molecular Complexity 2>
0.79818

>  <Non-C/H Atoms>
6

>  <Electronegative Atoms 2>
6

>  <Stereo Centers 2>
0

>  <Rotatable Bonds 2>
0

>  <Rings Closures 2>
3

>  <Aromatic Rings 2>
2

>  <Aromatic Atoms 2>
12

>  <sp3-Atoms>
2

>  <Amides 2>
0

>  <Amines 2>
0

>  <Aromatic Nitrogens 2>
0

>  <Basic Nitrogens>
0

$$$$
1,2,3,7,8-Pentachlorodibenzo-p-dioxin
Actelion Java MolfileCreator 2.0

  0  0  0  0  0  0              0 V3000
M  V30 BEGIN CTAB
M  V30 COUNTS 19 21 0 0 0
M  V30 BEGIN ATOM
M  V30 1 Cl 0.0 0.0 0.0 0
M  V30 2 C -1.3154 -0.7347 0.0 0
M  V30 3 C -2.6308 0.0237 0.0 0
M  V30 4 C -1.3272 -2.2278 0.0 0
M  V30 5 Cl -2.6426 1.5405 0.0 0
M  V30 6 C -3.9462 -0.711 0.0 0
M  V30 7 O -0.0355 -2.9744 0.0 0
M  V30 8 C -2.6426 -2.9626 0.0 0
M  V30 9 Cl -5.2616 0.0474 0.0 0
M  V30 10 C -3.958 -2.2041 0.0 0
M  V30 11 C -0.0474 -4.4676 0.0 0
M  V30 12 O -2.6545 -4.4557 0.0 0
M  V30 13 C -1.3628 -5.2023 0.0 0
M  V30 14 C 1.2443 -5.2023 0.0 0
M  V30 15 C -1.3746 -6.6955 0.0 0
M  V30 16 C 1.2324 -6.6955 0.0 0
M  V30 17 C -0.0829 -7.4302 0.0 0
M  V30 18 Cl 2.5241 -7.4302 0.0 0
M  V30 19 Cl -0.0948 -8.9234 0.0 0
M  V30 END ATOM
M  V30 BEGIN BOND
M  V30 1 1 1 2
M  V30 2 2 2 3
M  V30 3 1 2 4
M  V30 4 1 3 5
M  V30 5 1 3 6
M  V30 6 1 4 7
M  V30 7 2 4 8
M  V30 8 1 6 9
M  V30 9 2 6 10
M  V30 10 1 7 11
M  V30 11 1 8 12
M  V30 12 2 11 13
M  V30 13 1 11 14
M  V30 14 1 13 15
M  V30 15 2 14 16
M  V30 16 2 15 17
M  V30 17 1 16 18
M  V30 18 1 17 19
M  V30 19 1 8 10
M  V30 20 1 12 13
M  V30 21 1 16 17
M  V30 END BOND
M  V30 END CTAB
M  END
>  <Molecule Name>
1,2,3,7,8-Pentachlorodibenzo-p-dioxin

>  <Order (spectra)>
110

>  <NAME>
1,2,3,7,8-Pentachlorodibenzo-p-dioxin

>  <Molecular Formula>
C12H3O2Cl5

>  <Monoisotopic Mass>
353.857565

>  <SMILES>
ClC1=CC2=C(OC3=CC(Cl)=C(Cl)C=C3O2)C(Cl)=C1Cl

>  <InChI>
InChI=1S/C12H3Cl5O2/c13-4-1-7-8(2-5(4)14)19-12-9(18-7)3-6(15)10(16)11(12)17/h1-3H

>  <InChIKey>
FSPZPQQWDODWAU-UHFFFAOYSA-N

>  <Kingdom>
Organic compounds

>  <Superclass>
Organoheterocyclic compounds

>  <Class>
Benzodioxins

>  <Subclass>
Benzo-p-dioxins

>  <Parent Level 1>
Dibenzo-p-dioxins

>  <Parent Level 2>
Chlorinated dibenzo-p-dioxins

>  <Parent Level 3>


>  <cLogP>
6.7298

>  <cLogS>
-8.804

>  <Druglikeness>
-2.0981

>  <NP-class probability>
0.14

>  <SmilesFragFp 3>


>  <MS_READY_SMILES>
ClC1=CC2=C(OC3=CC(Cl)=C(Cl)C=C3O2)C(Cl)=C1Cl

>  <MS_READY_InChI>
InChI=1S/C12H3Cl5O2/c13-4-1-7-8(2-5(4)14)19-12-9(18-7)3-6(15)10(16)11(12)17/h1-3H

>  <QSAR_READY_SMILES>
ClC1=CC2=C(OC3=CC(Cl)=C(Cl)C=C3O2)C(Cl)=C1Cl

>  <QSAR_READY_InChI>
InChI=1S/C12H3Cl5O2/c13-4-1-7-8(2-5(4)14)19-12-9(18-7)3-6(15)10(16)11(12)17/h1-3H

>  <DTXSID>
DTXSID7052078

>  <DTXCID>
DTXCID2030645

>  <CASRN>
40321-76-4

>  <EXPOCAST_MEDIAN_EXPOSURE_PREDICTION_MG/KG-BW/DAY>
1.83E-08

>  <BIOCONCENTRATION_FACTOR_TEST_PRED>
8298.51

>  <BOILING_POINT_DEGC_TEST_PRED>
413.577

>  <48HR_DAPHNIA_LC50_MOL/L_TEST_PRED>
1.44E-07

>  <DENSITY_G/CM^3_TEST_PRED>
1.718

>  <DEVTOX_TEST_PRED>
0.506

>  <96HR_FATHEAD_MINNOW_MOL/L_TEST_PRED>
8.49E-08

>  <FLASH_POINT_DEGC_TEST_PRED>
174.619

>  <MELTING_POINT_DEGC_TEST_PRED>
198.598

>  <AMES_MUTAGENICITY_TEST_PRED>
0.123

>  <ORAL_RAT_LD50_MOL/KG_TEST_PRED>
3.91E-06

>  <SURFACE_TENSION_DYN/CM_TEST_PRED>
-

>  <THERMAL_CONDUCTIVITY_MW/(M*K)_TEST_PRED>
113.125

>  <TETRAHYMENA_PYRIFORMIS_IGC50_MOL/L_TEST_PRED>
4.27E-07

>  <VISCOSITY_CP_CP_TEST_PRED>
-

>  <VAPOR_PRESSURE_MMHG_TEST_PRED>
9.55E-10

>  <WATER_SOLUBILITY_MOL/L_TEST_PRED>
7.29E-10

>  <ATMOSPHERIC_HYDROXYLATION_RATE_(AOH)_CM3/MOLECULE*SEC_OPERA_PRED>
2.68E-12

>  <BIOCONCENTRATION_FACTOR_OPERA_PRED>
18174.1

>  <BIODEGRADATION_HALF_LIFE_DAYS_DAYS_OPERA_PRED>
14.392

>  <BOILING_POINT_DEGC_OPERA_PRED>
400.659

>  <HENRYS_LAW_ATM-M3/MOLE_OPERA_PRED>
1.88E-05

>  <OPERA_KM_DAYS_OPERA_PRED>
36.2708

>  <OCTANOL_AIR_PARTITION_COEFF_LOGKOA_OPERA_PRED>
10.5254

>  <SOIL_ADSORPTION_COEFFICIENT_KOC_L/KG_OPERA_PRED>
1443770

>  <OCTANOL_WATER_PARTITION_LOGP_OPERA_PRED>
6.63773

>  <MELTING_POINT_DEGC_OPERA_PRED>
236.308

>  <VAPOR_PRESSURE_MMHG_OPERA_PRED>
4.38E-10

>  <WATER_SOLUBILITY_MOL/L_OPERA_PRED>
3.14E-10

>  <Shape Index>
0.52632

>  <Molecular Flexibility>
0.050302

>  <Molecular Complexity>
0.86049

>  <Electronegative Atoms>
7

>  <Stereo Centers>
0

>  <Rotatable Bonds>
0

>  <Rings Closures>
3

>  <Aromatic Rings>
2

>  <Aromatic Atoms>
12

>  <Amides>
0

>  <Amines>
0

>  <Aromatic Nitrogens>
0

>  <Shape Index 2>
0.52632

>  <Molecular Flexibility 2>
0.050302

>  <Molecular Complexity 2>
0.86049

>  <Non-C/H Atoms>
7

>  <Electronegative Atoms 2>
7

>  <Stereo Centers 2>
0

>  <Rotatable Bonds 2>
0

>  <Rings Closures 2>
3

>  <Aromatic Rings 2>
2

>  <Aromatic Atoms 2>
12

>  <sp3-Atoms>
2

>  <Amides 2>
0

>  <Amines 2>
0

>  <Aromatic Nitrogens 2>
0

>  <Basic Nitrogens>
0

$$$$
Safrole
Actelion Java MolfileCreator 2.0

  0  0  0  0  0  0              0 V3000
M  V30 BEGIN CTAB
M  V30 COUNTS 12 13 0 0 0
M  V30 BEGIN ATOM
M  V30 1 O 0.0 0.0 0.0 0
M  V30 2 C -0.32 -1.458 0.0 0
M  V30 3 C 1.4817 0.1659 0.0 0
M  V30 4 C 0.972 -2.1929 0.0 0
M  V30 5 C -1.6358 -2.2048 0.0 0
M  V30 6 O 2.0862 -1.1972 0.0 0
M  V30 7 C 0.9601 -3.6865 0.0 0
M  V30 8 C -1.6476 -3.6983 0.0 0
M  V30 9 C -0.3556 -4.4333 0.0 0
M  V30 10 C -2.9634 -4.4451 0.0 0
M  V30 11 C -4.2792 -3.6865 0.0 0
M  V30 12 C -5.595 -4.4333 0.0 0
M  V30 END ATOM
M  V30 BEGIN BOND
M  V30 1 1 1 2
M  V30 2 1 1 3
M  V30 3 2 2 4
M  V30 4 1 2 5
M  V30 5 1 3 6
M  V30 6 1 4 7
M  V30 7 2 5 8
M  V30 8 2 7 9
M  V30 9 1 8 10
M  V30 10 1 10 11
M  V30 11 2 11 12
M  V30 12 1 4 6
M  V30 13 1 8 9
M  V30 END BOND
M  V30 END CTAB
M  END
>  <Molecule Name>
Safrole

>  <Order (spectra)>
149

>  <NAME>
Safrole

>  <Molecular Formula>
C10H10O2

>  <Monoisotopic Mass>
162.06808

>  <SMILES>
C=CCC1=CC=C2OCOC2=C1

>  <InChI>
InChI=1S/C10H10O2/c1-2-3-8-4-5-9-10(6-8)12-7-11-9/h2,4-6H,1,3,7H2

>  <InChIKey>
ZMQAAUBTXCXRIC-UHFFFAOYSA-N

>  <Kingdom>
Organic compounds

>  <Superclass>
Organoheterocyclic compounds

>  <Class>
Benzodioxoles

>  <Subclass>


>  <Parent Level 1>
Benzodioxoles

>  <Parent Level 2>


>  <Parent Level 3>


>  <cLogP>
2.7994

>  <cLogS>
-3.039

>  <Druglikeness>
-4.9264

>  <NP-class probability>
0.97

>  <SmilesFragFp 3>


>  <MS_READY_SMILES>
C=CCC1=CC=C2OCOC2=C1

>  <MS_READY_InChI>
InChI=1S/C10H10O2/c1-2-3-8-4-5-9-10(6-8)12-7-11-9/h2,4-6H,1,3,7H2

>  <QSAR_READY_SMILES>
C=CCC1=CC=C2OCOC2=C1

>  <QSAR_READY_InChI>
InChI=1S/C10H10O2/c1-2-3-8-4-5-9-10(6-8)12-7-11-9/h2,4-6H,1,3,7H2

>  <DTXSID>
DTXSID0021254

>  <DTXCID>
DTXCID601254

>  <CASRN>
94-59-7

>  <EXPOCAST_MEDIAN_EXPOSURE_PREDICTION_MG/KG-BW/DAY>
7.80E-05

>  <BIOCONCENTRATION_FACTOR_TEST_PRED>
26.9153

>  <BOILING_POINT_DEGC_TEST_PRED>
253.655

>  <48HR_DAPHNIA_LC50_MOL/L_TEST_PRED>
3.92E-05

>  <DENSITY_G/CM^3_TEST_PRED>
1.097

>  <DEVTOX_TEST_PRED>
0.727

>  <96HR_FATHEAD_MINNOW_MOL/L_TEST_PRED>
5.28E-05

>  <FLASH_POINT_DEGC_TEST_PRED>
104.838

>  <MELTING_POINT_DEGC_TEST_PRED>
24.409

>  <AMES_MUTAGENICITY_TEST_PRED>
0.009

>  <ORAL_RAT_LD50_MOL/KG_TEST_PRED>
0.0111944

>  <SURFACE_TENSION_DYN/CM_TEST_PRED>
38.275

>  <THERMAL_CONDUCTIVITY_MW/(M*K)_TEST_PRED>
138.711

>  <TETRAHYMENA_PYRIFORMIS_IGC50_MOL/L_TEST_PRED>
0.000110662

>  <VISCOSITY_CP_CP_TEST_PRED>
3.9355

>  <VAPOR_PRESSURE_MMHG_TEST_PRED>
0.00818465

>  <WATER_SOLUBILITY_MOL/L_TEST_PRED>
0.0036141

>  <ATMOSPHERIC_HYDROXYLATION_RATE_(AOH)_CM3/MOLECULE*SEC_OPERA_PRED>
7.10E-11

>  <BIOCONCENTRATION_FACTOR_OPERA_PRED>
6.88428

>  <BIODEGRADATION_HALF_LIFE_DAYS_DAYS_OPERA_PRED>
3.3551

>  <BOILING_POINT_DEGC_OPERA_PRED>
234.486

>  <HENRYS_LAW_ATM-M3/MOLE_OPERA_PRED>
0.000122428

>  <OPERA_KM_DAYS_OPERA_PRED>
0.275945

>  <OCTANOL_AIR_PARTITION_COEFF_LOGKOA_OPERA_PRED>
5.8614

>  <SOIL_ADSORPTION_COEFFICIENT_KOC_L/KG_OPERA_PRED>
678.971

>  <OCTANOL_WATER_PARTITION_LOGP_OPERA_PRED>
2.05672

>  <MELTING_POINT_DEGC_OPERA_PRED>
11.2529

>  <VAPOR_PRESSURE_MMHG_OPERA_PRED>
0.00544424

>  <WATER_SOLUBILITY_MOL/L_OPERA_PRED>
0.000472523

>  <Shape Index>
0.66667

>  <Molecular Flexibility>
0.38434

>  <Molecular Complexity>
0.69315

>  <Electronegative Atoms>
2

>  <Stereo Centers>
0

>  <Rotatable Bonds>
2

>  <Rings Closures>
2

>  <Aromatic Rings>
1

>  <Aromatic Atoms>
6

>  <Amides>
0

>  <Amines>
0

>  <Aromatic Nitrogens>
0

>  <Shape Index 2>
0.66667

>  <Molecular Flexibility 2>
0.38434

>  <Molecular Complexity 2>
0.69315

>  <Non-C/H Atoms>
2

>  <Electronegative Atoms 2>
2

>  <Stereo Centers 2>
0

>  <Rotatable Bonds 2>
2

>  <Rings Closures 2>
2

>  <Aromatic Rings 2>
1

>  <Aromatic Atoms 2>
6

>  <sp3-Atoms>
4

>  <Amides 2>
0

>  <Amines 2>
0

>  <Aromatic Nitrogens 2>
0

>  <Basic Nitrogens>
0

$$$$
Bendiocarb
Actelion Java MolfileCreator 2.0

  0  0  0  0  0  0              0 V3000
M  V30 BEGIN CTAB
M  V30 COUNTS 16 17 0 0 0
M  V30 BEGIN ATOM
M  V30 1 O 0.0 0.0 0.0 0
M  V30 2 C -0.0118 1.5174 0.0 0
M  V30 3 O 1.2803 2.2761 0.0 0
M  V30 4 N -1.3277 2.2761 0.0 0
M  V30 5 C 2.5725 1.5292 0.0 0
M  V30 6 C -2.6436 1.5292 0.0 0
M  V30 7 C 2.5606 0.0355 0.0 0
M  V30 8 C 3.8646 2.2879 0.0 0
M  V30 9 O 1.4344 -0.9602 0.0 0
M  V30 10 C 3.8528 -0.7112 0.0 0
M  V30 11 C 5.1568 1.5411 0.0 0
M  V30 12 C 2.039 -2.3235 0.0 0
M  V30 13 O 3.5327 -2.1694 0.0 0
M  V30 14 C 5.145 0.0474 0.0 0
M  V30 15 C 0.7231 -3.0585 0.0 0
M  V30 16 C 2.0271 -3.8172 0.0 0
M  V30 END ATOM
M  V30 BEGIN BOND
M  V30 1 2 1 2
M  V30 2 1 2 3
M  V30 3 1 2 4
M  V30 4 1 3 5
M  V30 5 1 4 6
M  V30 6 2 5 7
M  V30 7 1 5 8
M  V30 8 1 7 9
M  V30 9 1 7 10
M  V30 10 2 8 11
M  V30 11 1 9 12
M  V30 12 1 10 13
M  V30 13 2 10 14
M  V30 14 1 12 15
M  V30 15 1 12 16
M  V30 16 1 11 14
M  V30 17 1 12 13
M  V30 END BOND
M  V30 END CTAB
M  END
>  <Molecule Name>
Bendiocarb

>  <Order (spectra)>
265

>  <NAME>
Bendiocarb

>  <Molecular Formula>
C11H13NO4

>  <Monoisotopic Mass>
223.084459

>  <SMILES>
CNC(=O)OC1=CC=CC2=C1OC(C)(C)O2

>  <InChI>
InChI=1S/C11H13NO4/c1-11(2)15-8-6-4-5-7(9(8)16-11)14-10(13)12-3/h4-6H,1-3H3,(H,12,13)

>  <InChIKey>
XEGGRYVFLWGFHI-UHFFFAOYSA-N

>  <Kingdom>
Organic compounds

>  <Superclass>
Organoheterocyclic compounds

>  <Class>
Benzodioxoles

>  <Subclass>


>  <Parent Level 1>
Benzodioxoles

>  <Parent Level 2>


>  <Parent Level 3>


>  <cLogP>
2.1027

>  <cLogS>
-2.845

>  <Druglikeness>
-5.6362

>  <NP-class probability>
0.41

>  <SmilesFragFp 3>


>  <MS_READY_SMILES>
CNC(=O)OC1=CC=CC2=C1OC(C)(C)O2

>  <MS_READY_InChI>
InChI=1S/C11H13NO4/c1-11(2)15-8-6-4-5-7(9(8)16-11)14-10(13)12-3/h4-6H,1-3H3,(H,12,13)

>  <QSAR_READY_SMILES>
CNC(=O)OC1=CC=CC2=C1OC(C)(C)O2

>  <QSAR_READY_InChI>
InChI=1S/C11H13NO4/c1-11(2)15-8-6-4-5-7(9(8)16-11)14-10(13)12-3/h4-6H,1-3H3,(H,12,13)

>  <DTXSID>
DTXSID9032327

>  <DTXCID>
DTXCID7012327

>  <CASRN>
22781-23-3

>  <EXPOCAST_MEDIAN_EXPOSURE_PREDICTION_MG/KG-BW/DAY>
3.55E-07

>  <BIOCONCENTRATION_FACTOR_TEST_PRED>
7.31139

>  <BOILING_POINT_DEGC_TEST_PRED>
322.131

>  <48HR_DAPHNIA_LC50_MOL/L_TEST_PRED>
1.19E-05

>  <DENSITY_G/CM^3_TEST_PRED>
1.189

>  <DEVTOX_TEST_PRED>
0.845

>  <96HR_FATHEAD_MINNOW_MOL/L_TEST_PRED>
0.000114288

>  <FLASH_POINT_DEGC_TEST_PRED>
145.013

>  <MELTING_POINT_DEGC_TEST_PRED>
122.264

>  <AMES_MUTAGENICITY_TEST_PRED>
0.559

>  <ORAL_RAT_LD50_MOL/KG_TEST_PRED>
0.000147571

>  <SURFACE_TENSION_DYN/CM_TEST_PRED>
-

>  <THERMAL_CONDUCTIVITY_MW/(M*K)_TEST_PRED>
-

>  <TETRAHYMENA_PYRIFORMIS_IGC50_MOL/L_TEST_PRED>
0.00130617

>  <VISCOSITY_CP_CP_TEST_PRED>
20.1837

>  <VAPOR_PRESSURE_MMHG_TEST_PRED>
2.59E-06

>  <WATER_SOLUBILITY_MOL/L_TEST_PRED>
0.00510505

>  <ATMOSPHERIC_HYDROXYLATION_RATE_(AOH)_CM3/MOLECULE*SEC_OPERA_PRED>
1.32E-11

>  <BIOCONCENTRATION_FACTOR_OPERA_PRED>
10.0736

>  <BIODEGRADATION_HALF_LIFE_DAYS_DAYS_OPERA_PRED>
5.14633

>  <BOILING_POINT_DEGC_OPERA_PRED>
298.046

>  <HENRYS_LAW_ATM-M3/MOLE_OPERA_PRED>
6.64E-09

>  <OPERA_KM_DAYS_OPERA_PRED>
0.239485

>  <OCTANOL_AIR_PARTITION_COEFF_LOGKOA_OPERA_PRED>
9.00593

>  <SOIL_ADSORPTION_COEFFICIENT_KOC_L/KG_OPERA_PRED>
560.796

>  <OCTANOL_WATER_PARTITION_LOGP_OPERA_PRED>
1.70159

>  <MELTING_POINT_DEGC_OPERA_PRED>
129.922

>  <VAPOR_PRESSURE_MMHG_OPERA_PRED>
0.000034384

>  <WATER_SOLUBILITY_MOL/L_OPERA_PRED>
0.00122048

>  <Shape Index>
0.5625

>  <Molecular Flexibility>
0.048475

>  <Molecular Complexity>
0.76921

>  <Electronegative Atoms>
5

>  <Stereo Centers>
0

>  <Rotatable Bonds>
2

>  <Rings Closures>
2

>  <Aromatic Rings>
1

>  <Aromatic Atoms>
6

>  <Amides>
1

>  <Amines>
0

>  <Aromatic Nitrogens>
0

>  <Shape Index 2>
0.5625

>  <Molecular Flexibility 2>
0.048475

>  <Molecular Complexity 2>
0.76921

>  <Non-C/H Atoms>
5

>  <Electronegative Atoms 2>
5

>  <Stereo Centers 2>
0

>  <Rotatable Bonds 2>
2

>  <Rings Closures 2>
2

>  <Aromatic Rings 2>
1

>  <Aromatic Atoms 2>
6

>  <sp3-Atoms>
7

>  <Amides 2>
1

>  <Amines 2>
0

>  <Aromatic Nitrogens 2>
0

>  <Basic Nitrogens>
0

$$$$
Piperonyl butoxide
Actelion Java MolfileCreator 2.0

  0  0  0  0  0  0              0 V3000
M  V30 BEGIN CTAB
M  V30 COUNTS 24 25 0 0 0
M  V30 BEGIN ATOM
M  V30 1 O 0.0 0.0 0.0 0
M  V30 2 C -1.4344 -0.4467 0.0 0
M  V30 3 C 0.87 -1.1992 0.0 0
M  V30 4 C -1.4461 -1.9282 0.0 0
M  V30 5 C -2.7395 0.3056 0.0 0
M  V30 6 O -0.0235 -2.3985 0.0 0
M  V30 7 C -2.7512 -2.6689 0.0 0
M  V30 8 C -4.0446 -0.435 0.0 0
M  V30 9 C -4.0563 -1.9164 0.0 0
M  V30 10 C -5.3496 0.3174 0.0 0
M  V30 11 C -5.3614 -2.6572 0.0 0
M  V30 12 O -6.6547 -0.4232 0.0 0
M  V30 13 C -6.6665 -1.9047 0.0 0
M  V30 14 C -7.9598 0.3292 0.0 0
M  V30 15 C -7.9716 -2.6336 0.0 0
M  V30 16 C -9.2649 -0.4115 0.0 0
M  V30 17 O -10.57 0.3409 0.0 0
M  V30 18 C -11.8751 -0.3997 0.0 0
M  V30 19 C -13.1802 0.3527 0.0 0
M  V30 20 O -14.4853 -0.3879 0.0 0
M  V30 21 C -15.7904 0.3644 0.0 0
M  V30 22 C -17.0954 -0.3762 0.0 0
M  V30 23 C -18.4005 0.3762 0.0 0
M  V30 24 C -19.7056 -0.3644 0.0 0
M  V30 END ATOM
M  V30 BEGIN BOND
M  V30 1 1 1 2
M  V30 2 1 1 3
M  V30 3 2 2 4
M  V30 4 1 2 5
M  V30 5 1 3 6
M  V30 6 1 4 7
M  V30 7 2 5 8
M  V30 8 2 7 9
M  V30 9 1 8 10
M  V30 10 1 9 11
M  V30 11 1 10 12
M  V30 12 1 11 13
M  V30 13 1 12 14
M  V30 14 1 13 15
M  V30 15 1 14 16
M  V30 16 1 16 17
M  V30 17 1 17 18
M  V30 18 1 18 19
M  V30 19 1 19 20
M  V30 20 1 20 21
M  V30 21 1 21 22
M  V30 22 1 22 23
M  V30 23 1 23 24
M  V30 24 1 4 6
M  V30 25 1 8 9
M  V30 END BOND
M  V30 END CTAB
M  END
>  <Molecule Name>
Piperonyl butoxide

>  <Order (spectra)>
294

>  <NAME>
Piperonyl butoxide

>  <Molecular Formula>
C19H30O5

>  <Monoisotopic Mass>
338.209325

>  <SMILES>
CCCCOCCOCCOCC1=CC2=C(OCO2)C=C1CCC

>  <InChI>
InChI=1S/C19H30O5/c1-3-5-7-20-8-9-21-10-11-22-14-17-13-19-18(23-15-24-19)12-16(17)6-4-2/h12-13H,3-11,14-15H2,1-2H3

>  <InChIKey>
FIPWRIJSWJWJAI-UHFFFAOYSA-N

>  <Kingdom>
Organic compounds

>  <Superclass>
Organoheterocyclic compounds

>  <Class>
Benzodioxoles

>  <Subclass>


>  <Parent Level 1>
Benzodioxoles

>  <Parent Level 2>


>  <Parent Level 3>


>  <cLogP>
3.9456

>  <cLogS>
-3.794

>  <Druglikeness>
-20.263

>  <NP-class probability>
0.76

>  <SmilesFragFp 3>


>  <MS_READY_SMILES>
CCCCOCCOCCOCC1=CC2=C(OCO2)C=C1CCC

>  <MS_READY_InChI>
InChI=1S/C19H30O5/c1-3-5-7-20-8-9-21-10-11-22-14-17-13-19-18(23-15-24-19)12-16(17)6-4-2/h12-13H,3-11,14-15H2,1-2H3

>  <QSAR_READY_SMILES>
CCCCOCCOCCOCC1=CC2=C(OCO2)C=C1CCC

>  <QSAR_READY_InChI>
InChI=1S/C19H30O5/c1-3-5-7-20-8-9-21-10-11-22-14-17-13-19-18(23-15-24-19)12-16(17)6-4-2/h12-13H,3-11,14-15H2,1-2H3

>  <DTXSID>
DTXSID1021166

>  <DTXCID>
DTXCID501166

>  <CASRN>
51-03-6

>  <EXPOCAST_MEDIAN_EXPOSURE_PREDICTION_MG/KG-BW/DAY>
9.37E-07

>  <BIOCONCENTRATION_FACTOR_TEST_PRED>
18.55

>  <BOILING_POINT_DEGC_TEST_PRED>
393.28

>  <48HR_DAPHNIA_LC50_MOL/L_TEST_PRED>
2.14E-05

>  <DENSITY_G/CM^3_TEST_PRED>
1.07

>  <DEVTOX_TEST_PRED>
0.43

>  <96HR_FATHEAD_MINNOW_MOL/L_TEST_PRED>
3.72E-05

>  <FLASH_POINT_DEGC_TEST_PRED>
184.87

>  <MELTING_POINT_DEGC_TEST_PRED>
51.66

>  <AMES_MUTAGENICITY_TEST_PRED>
0.08

>  <ORAL_RAT_LD50_MOL/KG_TEST_PRED>
0.0074131

>  <SURFACE_TENSION_DYN/CM_TEST_PRED>
16.3

>  <THERMAL_CONDUCTIVITY_MW/(M*K)_TEST_PRED>
147.13

>  <TETRAHYMENA_PYRIFORMIS_IGC50_MOL/L_TEST_PRED>
5.75E-06

>  <VISCOSITY_CP_CP_TEST_PRED>
21.8776

>  <VAPOR_PRESSURE_MMHG_TEST_PRED>
7.08E-07

>  <WATER_SOLUBILITY_MOL/L_TEST_PRED>
7.24E-05

>  <ATMOSPHERIC_HYDROXYLATION_RATE_(AOH)_CM3/MOLECULE*SEC_OPERA_PRED>
1.67E-11

>  <BIOCONCENTRATION_FACTOR_OPERA_PRED>
126.718

>  <BIODEGRADATION_HALF_LIFE_DAYS_DAYS_OPERA_PRED>
4.73111

>  <BOILING_POINT_DEGC_OPERA_PRED>
324.413

>  <HENRYS_LAW_ATM-M3/MOLE_OPERA_PRED>
2.24E-06

>  <OPERA_KM_DAYS_OPERA_PRED>
4.19104

>  <OCTANOL_AIR_PARTITION_COEFF_LOGKOA_OPERA_PRED>
10.9118

>  <SOIL_ADSORPTION_COEFFICIENT_KOC_L/KG_OPERA_PRED>
10456.6

>  <OCTANOL_WATER_PARTITION_LOGP_OPERA_PRED>
4.74542

>  <MELTING_POINT_DEGC_OPERA_PRED>
34.3548

>  <VAPOR_PRESSURE_MMHG_OPERA_PRED>
8.62E-08

>  <WATER_SOLUBILITY_MOL/L_OPERA_PRED>
4.24E-05

>  <Shape Index>
0.70833

>  <Molecular Flexibility>
0.60473

>  <Molecular Complexity>
0.74577

>  <Electronegative Atoms>
5

>  <Stereo Centers>
0

>  <Rotatable Bonds>
13

>  <Rings Closures>
2

>  <Aromatic Rings>
1

>  <Aromatic Atoms>
6

>  <Amides>
0

>  <Amines>
0

>  <Aromatic Nitrogens>
0

>  <Shape Index 2>
0.70833

>  <Molecular Flexibility 2>
0.60473

>  <Molecular Complexity 2>
0.74577

>  <Non-C/H Atoms>
5

>  <Electronegative Atoms 2>
5

>  <Stereo Centers 2>
0

>  <Rotatable Bonds 2>
13

>  <Rings Closures 2>
2

>  <Aromatic Rings 2>
1

>  <Aromatic Atoms 2>
6

>  <sp3-Atoms>
18

>  <Amides 2>
0

>  <Amines 2>
0

>  <Aromatic Nitrogens 2>
0

>  <Basic Nitrogens>
0

$$$$
Fludioxonil
Actelion Java MolfileCreator 2.0

  0  0  0  0  0  0              0 V3000
M  V30 BEGIN CTAB
M  V30 COUNTS 18 20 0 0 0
M  V30 BEGIN ATOM
M  V30 1 F 0.0 0.0 0.0 0
M  V30 2 C -0.0118 -1.4914 0.0 0
M  V30 3 F -1.3256 -0.7338 0.0 0
M  V30 4 O -0.6391 -2.8526 0.0 0
M  V30 5 O 1.4677 -1.6334 0.0 0
M  V30 6 C 0.4616 -3.8468 0.0 0
M  V30 7 C 1.7636 -3.0893 0.0 0
M  V30 8 C 0.4497 -5.3382 0.0 0
M  V30 9 C 3.0538 -3.835 0.0 0
M  V30 10 C -0.864 -6.0839 0.0 0
M  V30 11 C 1.7399 -6.0839 0.0 0
M  V30 12 C 3.0419 -5.3264 0.0 0
M  V30 13 C -2.2489 -5.4566 0.0 0
M  V30 14 C -1.0297 -7.5635 0.0 0
M  V30 15 C -2.5685 -3.977 0.0 0
M  V30 16 C -3.2668 -6.5574 0.0 0
M  V30 17 N -2.5093 -7.8594 0.0 0
M  V30 18 N -2.8881 -2.4975 0.0 0
M  V30 END ATOM
M  V30 BEGIN BOND
M  V30 1 1 1 2
M  V30 2 1 2 3
M  V30 3 1 2 4
M  V30 4 1 2 5
M  V30 5 1 4 6
M  V30 6 1 5 7
M  V30 7 1 6 8
M  V30 8 1 7 9
M  V30 9 1 8 10
M  V30 10 2 8 11
M  V30 11 2 9 12
M  V30 12 1 10 13
M  V30 13 2 10 14
M  V30 14 1 13 15
M  V30 15 2 13 16
M  V30 16 1 14 17
M  V30 17 3 15 18
M  V30 18 2 6 7
M  V30 19 1 11 12
M  V30 20 1 16 17
M  V30 END BOND
M  V30 END CTAB
M  END
>  <Molecule Name>
Fludioxonil

>  <Order (spectra)>
308

>  <NAME>
Fludioxonil

>  <Molecular Formula>
C12H6N2O2F2

>  <Monoisotopic Mass>
248.039734

>  <SMILES>
FC1(F)OC2=CC=CC(=C2O1)C1=CNC=C1C#N

>  <InChI>
InChI=1S/C12H6F2N2O2/c13-12(14)17-10-3-1-2-8(11(10)18-12)9-6-16-5-7(9)4-15/h1-3,5-6,16H

>  <InChIKey>
MUJOIMFVNIBMKC-UHFFFAOYSA-N

>  <Kingdom>
Organic compounds

>  <Superclass>
Organoheterocyclic compounds

>  <Class>
Benzodioxoles

>  <Subclass>


>  <Parent Level 1>
Benzodioxoles

>  <Parent Level 2>


>  <Parent Level 3>


>  <cLogP>
3.6507

>  <cLogS>
-4.311

>  <Druglikeness>
-8.3453

>  <NP-class probability>
0.09

>  <SmilesFragFp 3>


>  <MS_READY_SMILES>
FC1(F)OC2=CC=CC(=C2O1)C1=CNC=C1C#N

>  <MS_READY_InChI>
InChI=1S/C12H6F2N2O2/c13-12(14)17-10-3-1-2-8(11(10)18-12)9-6-16-5-7(9)4-15/h1-3,5-6,16H

>  <QSAR_READY_SMILES>
FC1(F)OC2=CC=CC(=C2O1)C1=CNC=C1C#N

>  <QSAR_READY_InChI>
InChI=1S/C12H6F2N2O2/c13-12(14)17-10-3-1-2-8(11(10)18-12)9-6-16-5-7(9)4-15/h1-3,5-6,16H

>  <DTXSID>
DTXSID2032398

>  <DTXCID>
DTXCID0012398

>  <CASRN>
131341-86-1

>  <EXPOCAST_MEDIAN_EXPOSURE_PREDICTION_MG/KG-BW/DAY>
2.19E-07

>  <BIOCONCENTRATION_FACTOR_TEST_PRED>
45.1856

>  <BOILING_POINT_DEGC_TEST_PRED>
407.977

>  <48HR_DAPHNIA_LC50_MOL/L_TEST_PRED>
5.55E-07

>  <DENSITY_G/CM^3_TEST_PRED>
1.309

>  <DEVTOX_TEST_PRED>
1.069

>  <96HR_FATHEAD_MINNOW_MOL/L_TEST_PRED>
0.000003155

>  <FLASH_POINT_DEGC_TEST_PRED>
200.525

>  <MELTING_POINT_DEGC_TEST_PRED>
154.58

>  <AMES_MUTAGENICITY_TEST_PRED>
0.754

>  <ORAL_RAT_LD50_MOL/KG_TEST_PRED>
0.000270396

>  <SURFACE_TENSION_DYN/CM_TEST_PRED>
-

>  <THERMAL_CONDUCTIVITY_MW/(M*K)_TEST_PRED>
-

>  <TETRAHYMENA_PYRIFORMIS_IGC50_MOL/L_TEST_PRED>
-

>  <VISCOSITY_CP_CP_TEST_PRED>
-

>  <VAPOR_PRESSURE_MMHG_TEST_PRED>
3.59E-08

>  <WATER_SOLUBILITY_MOL/L_TEST_PRED>
2.63E-05

>  <ATMOSPHERIC_HYDROXYLATION_RATE_(AOH)_CM3/MOLECULE*SEC_OPERA_PRED>
1.39E-11

>  <BIOCONCENTRATION_FACTOR_OPERA_PRED>
8.9758

>  <BIODEGRADATION_HALF_LIFE_DAYS_DAYS_OPERA_PRED>
3.54425

>  <BOILING_POINT_DEGC_OPERA_PRED>
350.567

>  <HENRYS_LAW_ATM-M3/MOLE_OPERA_PRED>
4.53E-09

>  <OPERA_KM_DAYS_OPERA_PRED>
0.574523

>  <OCTANOL_AIR_PARTITION_COEFF_LOGKOA_OPERA_PRED>
9.89571

>  <SOIL_ADSORPTION_COEFFICIENT_KOC_L/KG_OPERA_PRED>
2639.59

>  <OCTANOL_WATER_PARTITION_LOGP_OPERA_PRED>
4.11566

>  <MELTING_POINT_DEGC_OPERA_PRED>
199.674

>  <VAPOR_PRESSURE_MMHG_OPERA_PRED>
2.94E-09

>  <WATER_SOLUBILITY_MOL/L_OPERA_PRED>
6.91E-06

>  <Shape Index>
0.5

>  <Molecular Flexibility>
0.28034

>  <Molecular Complexity>
0.84784

>  <Electronegative Atoms>
6

>  <Stereo Centers>
0

>  <Rotatable Bonds>
1

>  <Rings Closures>
3

>  <Aromatic Rings>
2

>  <Aromatic Atoms>
11

>  <Amides>
0

>  <Amines>
0

>  <Aromatic Nitrogens>
1

>  <Shape Index 2>
0.5

>  <Molecular Flexibility 2>
0.28034

>  <Molecular Complexity 2>
0.84784

>  <Non-C/H Atoms>
6

>  <Electronegative Atoms 2>
6

>  <Stereo Centers 2>
0

>  <Rotatable Bonds 2>
1

>  <Rings Closures 2>
3

>  <Aromatic Rings 2>
2

>  <Aromatic Atoms 2>
11

>  <sp3-Atoms>
3

>  <Amides 2>
0

>  <Amines 2>
0

>  <Aromatic Nitrogens 2>
1

>  <Basic Nitrogens>
0

$$$$
1,2,7,9-Tetrachlorodibenzofuran
Actelion Java MolfileCreator 2.0

  0  0  0  0  0  0              0 V3000
M  V30 BEGIN CTAB
M  V30 COUNTS 17 19 0 0 0
M  V30 BEGIN ATOM
M  V30 1 Cl 0.0 0.0 0.0 0
M  V30 2 C -1.3066 -0.7416 0.0 0
M  V30 3 C -1.3184 -2.2248 0.0 0
M  V30 4 C -2.6133 0.0117 0.0 0
M  V30 5 Cl -0.0353 -2.9664 0.0 0
M  V30 6 C -2.6251 -2.9664 0.0 0
M  V30 7 C -2.9311 1.4832 0.0 0
M  V30 8 C -3.92 -0.718 0.0 0
M  V30 9 C -3.9317 -2.2013 0.0 0
M  V30 10 C -2.06 2.7075 0.0 0
M  V30 11 C -4.4262 1.648 0.0 0
M  V30 12 O -5.0383 0.2942 0.0 0
M  V30 13 Cl -0.5885 2.5662 0.0 0
M  V30 14 C -2.6839 4.0848 0.0 0
M  V30 15 C -5.0501 3.0253 0.0 0
M  V30 16 C -4.1789 4.2496 0.0 0
M  V30 17 Cl -4.8029 5.6269 0.0 0
M  V30 END ATOM
M  V30 BEGIN BOND
M  V30 1 1 1 2
M  V30 2 2 2 3
M  V30 3 1 2 4
M  V30 4 1 3 5
M  V30 5 1 3 6
M  V30 6 1 4 7
M  V30 7 2 4 8
M  V30 8 2 6 9
M  V30 9 2 7 10
M  V30 10 1 7 11
M  V30 11 1 8 12
M  V30 12 1 10 13
M  V30 13 1 10 14
M  V30 14 2 11 15
M  V30 15 2 14 16
M  V30 16 1 16 17
M  V30 17 1 8 9
M  V30 18 1 11 12
M  V30 19 1 15 16
M  V30 END BOND
M  V30 END CTAB
M  END
>  <Molecule Name>
1,2,7,9-Tetrachlorodibenzofuran

>  <Order (spectra)>
40

>  <NAME>
1,2,7,9-Tetrachlorodibenzofuran

>  <Molecular Formula>
C12H4OCl4

>  <Monoisotopic Mass>
303.901623

>  <SMILES>
ClC1=CC2=C(C3=C(O2)C=CC(Cl)=C3Cl)C(Cl)=C1

>  <InChI>
InChI=1S/C12H4Cl4O/c13-5-3-7(15)10-9(4-5)17-8-2-1-6(14)12(16)11(8)10/h1-4H

>  <InChIKey>
PDMFRPIFZAKMLH-UHFFFAOYSA-N

>  <Kingdom>
Organic compounds

>  <Superclass>
Organoheterocyclic compounds

>  <Class>
Benzofurans

>  <Subclass>
Dibenzofurans

>  <Parent Level 1>
Chlorinated dibenzofurans

>  <Parent Level 2>
Polychlorinated dibenzofurans

>  <Parent Level 3>


>  <cLogP>
5.8521

>  <cLogS>
-7.22

>  <Druglikeness>
-1.9658

>  <NP-class probability>
0.05

>  <SmilesFragFp 3>


>  <MS_READY_SMILES>
ClC1=CC2=C(C3=C(O2)C=CC(Cl)=C3Cl)C(Cl)=C1

>  <MS_READY_InChI>
InChI=1S/C12H4Cl4O/c13-5-3-7(15)10-9(4-5)17-8-2-1-6(14)12(16)11(8)10/h1-4H

>  <QSAR_READY_SMILES>
ClC1=CC2=C(C3=C(O2)C=CC(Cl)=C3Cl)C(Cl)=C1

>  <QSAR_READY_InChI>
InChI=1S/C12H4Cl4O/c13-5-3-7(15)10-9(4-5)17-8-2-1-6(14)12(16)11(8)10/h1-4H

>  <DTXSID>
DTXSID40232540

>  <DTXCID>
DTXCID70155031

>  <CASRN>
83704-26-1

>  <EXPOCAST_MEDIAN_EXPOSURE_PREDICTION_MG/KG-BW/DAY>
1.14E-07

>  <BIOCONCENTRATION_FACTOR_TEST_PRED>
3564.51

>  <BOILING_POINT_DEGC_TEST_PRED>
395.106

>  <48HR_DAPHNIA_LC50_MOL/L_TEST_PRED>
3.78E-07

>  <DENSITY_G/CM^3_TEST_PRED>
1.548

>  <DEVTOX_TEST_PRED>
0.54

>  <96HR_FATHEAD_MINNOW_MOL/L_TEST_PRED>
2.21E-07

>  <FLASH_POINT_DEGC_TEST_PRED>
187.763

>  <MELTING_POINT_DEGC_TEST_PRED>
187.969

>  <AMES_MUTAGENICITY_TEST_PRED>
0.448

>  <ORAL_RAT_LD50_MOL/KG_TEST_PRED>
0.000108393

>  <SURFACE_TENSION_DYN/CM_TEST_PRED>
-

>  <THERMAL_CONDUCTIVITY_MW/(M*K)_TEST_PRED>
-

>  <TETRAHYMENA_PYRIFORMIS_IGC50_MOL/L_TEST_PRED>
6.14E-07

>  <VISCOSITY_CP_CP_TEST_PRED>
-

>  <VAPOR_PRESSURE_MMHG_TEST_PRED>
3.15E-08

>  <WATER_SOLUBILITY_MOL/L_TEST_PRED>
1.77E-09

>  <ATMOSPHERIC_HYDROXYLATION_RATE_(AOH)_CM3/MOLECULE*SEC_OPERA_PRED>
9.51E-13

>  <BIOCONCENTRATION_FACTOR_OPERA_PRED>
1866.79

>  <BIODEGRADATION_HALF_LIFE_DAYS_DAYS_OPERA_PRED>
6.78411

>  <BOILING_POINT_DEGC_OPERA_PRED>
395.203

>  <HENRYS_LAW_ATM-M3/MOLE_OPERA_PRED>
8.18E-05

>  <OPERA_KM_DAYS_OPERA_PRED>
6.90329

>  <OCTANOL_AIR_PARTITION_COEFF_LOGKOA_OPERA_PRED>
9.57426

>  <SOIL_ADSORPTION_COEFFICIENT_KOC_L/KG_OPERA_PRED>
425388

>  <OCTANOL_WATER_PARTITION_LOGP_OPERA_PRED>
6.42029

>  <MELTING_POINT_DEGC_OPERA_PRED>
182.122

>  <VAPOR_PRESSURE_MMHG_OPERA_PRED>
2.39E-08

>  <WATER_SOLUBILITY_MOL/L_OPERA_PRED>
1.76E-09

>  <Shape Index>
0.52941

>  <Molecular Flexibility>
0

>  <Molecular Complexity>
0.87558

>  <Electronegative Atoms>
5

>  <Stereo Centers>
0

>  <Rotatable Bonds>
0

>  <Rings Closures>
3

>  <Aromatic Rings>
3

>  <Aromatic Atoms>
13

>  <Amides>
0

>  <Amines>
0

>  <Aromatic Nitrogens>
0

>  <Shape Index 2>
0.52941

>  <Molecular Flexibility 2>
0

>  <Molecular Complexity 2>
0.87558

>  <Non-C/H Atoms>
5

>  <Electronegative Atoms 2>
5

>  <Stereo Centers 2>
0

>  <Rotatable Bonds 2>
0

>  <Rings Closures 2>
3

>  <Aromatic Rings 2>
3

>  <Aromatic Atoms 2>
13

>  <sp3-Atoms>
0

>  <Amides 2>
0

>  <Amines 2>
0

>  <Aromatic Nitrogens 2>
0

>  <Basic Nitrogens>
0

$$$$
Octachlorodibenzofuran
Actelion Java MolfileCreator 2.0

  0  0  0  0  0  0              0 V3000
M  V30 BEGIN CTAB
M  V30 COUNTS 21 23 0 0 0
M  V30 BEGIN ATOM
M  V30 1 Cl 0.0 0.0 0.0 0
M  V30 2 C -1.3083 -0.7425 0.0 0
M  V30 3 C -2.6167 0.0117 0.0 0
M  V30 4 C -1.3201 -2.2277 0.0 0
M  V30 5 Cl -2.6285 1.5205 0.0 0
M  V30 6 C -3.9251 -0.719 0.0 0
M  V30 7 Cl -0.0353 -2.9703 0.0 0
M  V30 8 C -2.6285 -2.9703 0.0 0
M  V30 9 Cl -5.2335 0.0353 0.0 0
M  V30 10 C -3.9369 -2.2042 0.0 0
M  V30 11 O -2.9467 -4.4201 0.0 0
M  V30 12 C -5.0567 -3.1943 0.0 0
M  V30 13 C -4.4437 -4.5616 0.0 0
M  V30 14 C -6.5536 -3.0293 0.0 0
M  V30 15 C -5.3395 -5.7639 0.0 0
M  V30 16 Cl -7.1783 -1.6502 0.0 0
M  V30 17 C -7.4494 -4.2315 0.0 0
M  V30 18 Cl -4.7384 -7.1194 0.0 0
M  V30 19 C -6.8365 -5.5989 0.0 0
M  V30 20 Cl -8.9464 -4.0665 0.0 0
M  V30 21 Cl -7.7323 -6.8012 0.0 0
M  V30 END ATOM
M  V30 BEGIN BOND
M  V30 1 1 1 2
M  V30 2 2 2 3
M  V30 3 1 2 4
M  V30 4 1 3 5
M  V30 5 1 3 6
M  V30 6 1 4 7
M  V30 7 2 4 8
M  V30 8 1 6 9
M  V30 9 2 6 10
M  V30 10 1 8 11
M  V30 11 1 10 12
M  V30 12 1 11 13
M  V30 13 1 12 14
M  V30 14 1 13 15
M  V30 15 1 14 16
M  V30 16 2 14 17
M  V30 17 1 15 18
M  V30 18 2 15 19
M  V30 19 1 17 20
M  V30 20 1 19 21
M  V30 21 1 8 10
M  V30 22 2 12 13
M  V30 23 1 17 19
M  V30 END BOND
M  V30 END CTAB
M  END
>  <Molecule Name>
Octachlorodibenzofuran

>  <Order (spectra)>
104

>  <NAME>
Octachlorodibenzofuran

>  <Molecular Formula>
C12OCl8

>  <Monoisotopic Mass>
439.745731

>  <SMILES>
ClC1=C2OC3=C(C2=C(Cl)C(Cl)=C1Cl)C(Cl)=C(Cl)C(Cl)=C3Cl

>  <InChI>
InChI=1S/C12Cl8O/c13-3-1-2-4(14)6(16)8(18)10(20)12(2)21-11(1)9(19)7(17)5(3)15

>  <InChIKey>
RHIROFAGUQOFLU-UHFFFAOYSA-N

>  <Kingdom>
Organic compounds

>  <Superclass>
Organoheterocyclic compounds

>  <Class>
Benzofurans

>  <Subclass>
Dibenzofurans

>  <Parent Level 1>
Chlorinated dibenzofurans

>  <Parent Level 2>
Polychlorinated dibenzofurans

>  <Parent Level 3>


>  <cLogP>
8.2761

>  <cLogS>
-10.164

>  <Druglikeness>
-1.9658

>  <NP-class probability>
0.05

>  <SmilesFragFp 3>


>  <MS_READY_SMILES>
ClC1=C2OC3=C(C2=C(Cl)C(Cl)=C1Cl)C(Cl)=C(Cl)C(Cl)=C3Cl

>  <MS_READY_InChI>
InChI=1S/C12Cl8O/c13-3-1-2-4(14)6(16)8(18)10(20)12(2)21-11(1)9(19)7(17)5(3)15

>  <QSAR_READY_SMILES>
ClC1=C2OC3=C(C2=C(Cl)C(Cl)=C1Cl)C(Cl)=C(Cl)C(Cl)=C3Cl

>  <QSAR_READY_InChI>
InChI=1S/C12Cl8O/c13-3-1-2-4(14)6(16)8(18)10(20)12(2)21-11(1)9(19)7(17)5(3)15

>  <DTXSID>
DTXSID3052062

>  <DTXCID>
DTXCID4030629

>  <CASRN>
39001-02-0

>  <EXPOCAST_MEDIAN_EXPOSURE_PREDICTION_MG/KG-BW/DAY>
5.86E-08

>  <BIOCONCENTRATION_FACTOR_TEST_PRED>
28248.8

>  <BOILING_POINT_DEGC_TEST_PRED>
495.126

>  <48HR_DAPHNIA_LC50_MOL/L_TEST_PRED>
6.98E-09

>  <DENSITY_G/CM^3_TEST_PRED>
2.017

>  <DEVTOX_TEST_PRED>
0.258

>  <96HR_FATHEAD_MINNOW_MOL/L_TEST_PRED>
5.85E-09

>  <FLASH_POINT_DEGC_TEST_PRED>
221.147

>  <MELTING_POINT_DEGC_TEST_PRED>
233.508

>  <AMES_MUTAGENICITY_TEST_PRED>
0.215

>  <ORAL_RAT_LD50_MOL/KG_TEST_PRED>
-

>  <SURFACE_TENSION_DYN/CM_TEST_PRED>
-

>  <THERMAL_CONDUCTIVITY_MW/(M*K)_TEST_PRED>
-

>  <TETRAHYMENA_PYRIFORMIS_IGC50_MOL/L_TEST_PRED>
1.61E-07

>  <VISCOSITY_CP_CP_TEST_PRED>
-

>  <VAPOR_PRESSURE_MMHG_TEST_PRED>
4.34E-11

>  <WATER_SOLUBILITY_MOL/L_TEST_PRED>
1.31E-11

>  <ATMOSPHERIC_HYDROXYLATION_RATE_(AOH)_CM3/MOLECULE*SEC_OPERA_PRED>
1.42E-12

>  <BIOCONCENTRATION_FACTOR_OPERA_PRED>
777.702

>  <BIODEGRADATION_HALF_LIFE_DAYS_DAYS_OPERA_PRED>
52.421

>  <BOILING_POINT_DEGC_OPERA_PRED>
456.382

>  <HENRYS_LAW_ATM-M3/MOLE_OPERA_PRED>
0.0051539

>  <OPERA_KM_DAYS_OPERA_PRED>
16.5775

>  <OCTANOL_AIR_PARTITION_COEFF_LOGKOA_OPERA_PRED>
11.8969

>  <SOIL_ADSORPTION_COEFFICIENT_KOC_L/KG_OPERA_PRED>
391584

>  <OCTANOL_WATER_PARTITION_LOGP_OPERA_PRED>
8.59879

>  <MELTING_POINT_DEGC_OPERA_PRED>
257.9

>  <VAPOR_PRESSURE_MMHG_OPERA_PRED>
3.81E-12

>  <WATER_SOLUBILITY_MOL/L_OPERA_PRED>
2.60E-12

>  <Shape Index>
0.42857

>  <Molecular Flexibility>
0

>  <Molecular Complexity>
0.95096

>  <Electronegative Atoms>
9

>  <Stereo Centers>
0

>  <Rotatable Bonds>
0

>  <Rings Closures>
3

>  <Aromatic Rings>
3

>  <Aromatic Atoms>
13

>  <Amides>
0

>  <Amines>
0

>  <Aromatic Nitrogens>
0

>  <Shape Index 2>
0.42857

>  <Molecular Flexibility 2>
0

>  <Molecular Complexity 2>
0.95096

>  <Non-C/H Atoms>
9

>  <Electronegative Atoms 2>
9

>  <Stereo Centers 2>
0

>  <Rotatable Bonds 2>
0

>  <Rings Closures 2>
3

>  <Aromatic Rings 2>
3

>  <Aromatic Atoms 2>
13

>  <sp3-Atoms>
0

>  <Amides 2>
0

>  <Amines 2>
0

>  <Aromatic Nitrogens 2>
0

>  <Basic Nitrogens>
0

$$$$
1,2,3,7,8-Pentachlorodibenzofuran
Actelion Java MolfileCreator 2.0

  0  0  0  0  0  0              0 V3000
M  V30 BEGIN CTAB
M  V30 COUNTS 18 20 0 0 0
M  V30 BEGIN ATOM
M  V30 1 Cl 0.0 0.0 0.0 0
M  V30 2 C -1.3122 -0.7448 0.0 0
M  V30 3 C -1.324 -2.2344 0.0 0
M  V30 4 C -2.6245 0.0118 0.0 0
M  V30 5 Cl -0.0354 -2.9792 0.0 0
M  V30 6 C -2.6363 -2.9792 0.0 0
M  V30 7 Cl -2.6363 1.525 0.0 0
M  V30 8 C -3.9368 -0.7211 0.0 0
M  V30 9 C -3.9486 -2.2225 0.0 0
M  V30 10 C -2.9555 -4.4333 0.0 0
M  V30 11 O -5.0717 -3.2156 0.0 0
M  V30 12 C -4.457 -4.5752 0.0 0
M  V30 13 C -2.0807 -5.6392 0.0 0
M  V30 14 C -5.0835 -5.9347 0.0 0
M  V30 15 C -2.7073 -6.9988 0.0 0
M  V30 16 C -4.2087 -7.1406 0.0 0
M  V30 17 Cl -1.8324 -8.2046 0.0 0
M  V30 18 Cl -4.8353 -8.5002 0.0 0
M  V30 END ATOM
M  V30 BEGIN BOND
M  V30 1 1 1 2
M  V30 2 2 2 3
M  V30 3 1 2 4
M  V30 4 1 3 5
M  V30 5 1 3 6
M  V30 6 1 4 7
M  V30 7 2 4 8
M  V30 8 2 6 9
M  V30 9 1 6 10
M  V30 10 1 9 11
M  V30 11 2 10 12
M  V30 12 1 10 13
M  V30 13 1 12 14
M  V30 14 2 13 15
M  V30 15 2 14 16
M  V30 16 1 15 17
M  V30 17 1 16 18
M  V30 18 1 8 9
M  V30 19 1 11 12
M  V30 20 1 15 16
M  V30 END BOND
M  V30 END CTAB
M  END
>  <Molecule Name>
1,2,3,7,8-Pentachlorodibenzofuran

>  <Order (spectra)>
105

>  <NAME>
1,2,3,7,8-Pentachlorodibenzofuran

>  <Molecular Formula>
C12H3OCl5

>  <Monoisotopic Mass>
337.86265

>  <SMILES>
ClC1=CC2=C(C3=CC(Cl)=C(Cl)C=C3O2)C(Cl)=C1Cl

>  <InChI>
InChI=1S/C12H3Cl5O/c13-5-1-4-8(2-6(5)14)18-9-3-7(15)11(16)12(17)10(4)9/h1-3H

>  <InChIKey>
SBMIVUVRFPGOEB-UHFFFAOYSA-N

>  <Kingdom>
Organic compounds

>  <Superclass>
Organoheterocyclic compounds

>  <Class>
Benzofurans

>  <Subclass>
Dibenzofurans

>  <Parent Level 1>
Chlorinated dibenzofurans

>  <Parent Level 2>
Polychlorinated dibenzofurans

>  <Parent Level 3>


>  <cLogP>
6.4581

>  <cLogS>
-7.956

>  <Druglikeness>
-1.9658

>  <NP-class probability>
0.05

>  <SmilesFragFp 3>


>  <MS_READY_SMILES>
ClC1=CC2=C(C3=CC(Cl)=C(Cl)C=C3O2)C(Cl)=C1Cl

>  <MS_READY_InChI>
InChI=1S/C12H3Cl5O/c13-5-1-4-8(2-6(5)14)18-9-3-7(15)11(16)12(17)10(4)9/h1-3H

>  <QSAR_READY_SMILES>
ClC1=CC2=C(C3=CC(Cl)=C(Cl)C=C3O2)C(Cl)=C1Cl

>  <QSAR_READY_InChI>
InChI=1S/C12H3Cl5O/c13-5-1-4-8(2-6(5)14)18-9-3-7(15)11(16)12(17)10(4)9/h1-3H

>  <DTXSID>
DTXSID7052234

>  <DTXCID>
DTXCID2030805

>  <CASRN>
57117-41-6

>  <EXPOCAST_MEDIAN_EXPOSURE_PREDICTION_MG/KG-BW/DAY>
6.23E-08

>  <BIOCONCENTRATION_FACTOR_TEST_PRED>
6123.5

>  <BOILING_POINT_DEGC_TEST_PRED>
416.993

>  <48HR_DAPHNIA_LC50_MOL/L_TEST_PRED>
1.82E-07

>  <DENSITY_G/CM^3_TEST_PRED>
1.619

>  <DEVTOX_TEST_PRED>
0.501

>  <96HR_FATHEAD_MINNOW_MOL/L_TEST_PRED>
9.29E-08

>  <FLASH_POINT_DEGC_TEST_PRED>
196.882

>  <MELTING_POINT_DEGC_TEST_PRED>
195.416

>  <AMES_MUTAGENICITY_TEST_PRED>
0.176

>  <ORAL_RAT_LD50_MOL/KG_TEST_PRED>
1.73E-05

>  <SURFACE_TENSION_DYN/CM_TEST_PRED>
-

>  <THERMAL_CONDUCTIVITY_MW/(M*K)_TEST_PRED>
-

>  <TETRAHYMENA_PYRIFORMIS_IGC50_MOL/L_TEST_PRED>
1.85E-07

>  <VISCOSITY_CP_CP_TEST_PRED>
-

>  <VAPOR_PRESSURE_MMHG_TEST_PRED>
3.58E-09

>  <WATER_SOLUBILITY_MOL/L_TEST_PRED>
4.21E-10

>  <ATMOSPHERIC_HYDROXYLATION_RATE_(AOH)_CM3/MOLECULE*SEC_OPERA_PRED>
9.42E-13

>  <BIOCONCENTRATION_FACTOR_OPERA_PRED>
3835.94

>  <BIODEGRADATION_HALF_LIFE_DAYS_DAYS_OPERA_PRED>
18.1982

>  <BOILING_POINT_DEGC_OPERA_PRED>
407.496

>  <HENRYS_LAW_ATM-M3/MOLE_OPERA_PRED>
0.000222506

>  <OPERA_KM_DAYS_OPERA_PRED>
15.7592

>  <OCTANOL_AIR_PARTITION_COEFF_LOGKOA_OPERA_PRED>
10.3896

>  <SOIL_ADSORPTION_COEFFICIENT_KOC_L/KG_OPERA_PRED>
1161730

>  <OCTANOL_WATER_PARTITION_LOGP_OPERA_PRED>
6.78364

>  <MELTING_POINT_DEGC_OPERA_PRED>
215.342

>  <VAPOR_PRESSURE_MMHG_OPERA_PRED>
1.74E-09

>  <WATER_SOLUBILITY_MOL/L_OPERA_PRED>
4.54E-10

>  <Shape Index>
0.5

>  <Molecular Flexibility>
0

>  <Molecular Complexity>
0.87338

>  <Electronegative Atoms>
6

>  <Stereo Centers>
0

>  <Rotatable Bonds>
0

>  <Rings Closures>
3

>  <Aromatic Rings>
3

>  <Aromatic Atoms>
13

>  <Amides>
0

>  <Amines>
0

>  <Aromatic Nitrogens>
0

>  <Shape Index 2>
0.5

>  <Molecular Flexibility 2>
0

>  <Molecular Complexity 2>
0.87338

>  <Non-C/H Atoms>
6

>  <Electronegative Atoms 2>
6

>  <Stereo Centers 2>
0

>  <Rotatable Bonds 2>
0

>  <Rings Closures 2>
3

>  <Aromatic Rings 2>
3

>  <Aromatic Atoms 2>
13

>  <sp3-Atoms>
0

>  <Amides 2>
0

>  <Amines 2>
0

>  <Aromatic Nitrogens 2>
0

>  <Basic Nitrogens>
0

$$$$
1,2,3,4,7,8-Hexachlorodibenzofuran
Actelion Java MolfileCreator 2.0

  0  0  0  0  0  0              0 V3000
M  V30 BEGIN CTAB
M  V30 COUNTS 19 21 0 0 0
M  V30 BEGIN ATOM
M  V30 1 Cl 0.0 0.0 0.0 0
M  V30 2 C -1.3082 -0.7425 0.0 0
M  V30 3 C -2.6164 0.0117 0.0 0
M  V30 4 C -1.32 -2.2275 0.0 0
M  V30 5 Cl -2.6282 1.5203 0.0 0
M  V30 6 C -3.9247 -0.7189 0.0 0
M  V30 7 Cl -0.0353 -2.97 0.0 0
M  V30 8 C -2.6282 -2.97 0.0 0
M  V30 9 Cl -5.2329 0.0353 0.0 0
M  V30 10 C -3.9365 -2.2039 0.0 0
M  V30 11 O -2.9464 -4.4197 0.0 0
M  V30 12 C -5.0561 -3.194 0.0 0
M  V30 13 C -4.4433 -4.5611 0.0 0
M  V30 14 C -6.553 -3.029 0.0 0
M  V30 15 C -5.339 -5.7633 0.0 0
M  V30 16 C -7.4487 -4.2311 0.0 0
M  V30 17 C -6.8358 -5.5983 0.0 0
M  V30 18 Cl -8.9455 -4.0661 0.0 0
M  V30 19 Cl -7.7316 -6.8005 0.0 0
M  V30 END ATOM
M  V30 BEGIN BOND
M  V30 1 1 1 2
M  V30 2 2 2 3
M  V30 3 1 2 4
M  V30 4 1 3 5
M  V30 5 1 3 6
M  V30 6 1 4 7
M  V30 7 2 4 8
M  V30 8 1 6 9
M  V30 9 2 6 10
M  V30 10 1 8 11
M  V30 11 1 10 12
M  V30 12 1 11 13
M  V30 13 1 12 14
M  V30 14 1 13 15
M  V30 15 2 14 16
M  V30 16 2 15 17
M  V30 17 1 16 18
M  V30 18 1 17 19
M  V30 19 1 8 10
M  V30 20 2 12 13
M  V30 21 1 16 17
M  V30 END BOND
M  V30 END CTAB
M  END
>  <Molecule Name>
1,2,3,4,7,8-Hexachlorodibenzofuran

>  <Order (spectra)>
106

>  <NAME>
1,2,3,4,7,8-Hexachlorodibenzofuran

>  <Molecular Formula>
C12H2OCl6

>  <Monoisotopic Mass>
371.823677

>  <SMILES>
ClC1=CC2=C(C=C1Cl)C1=C(O2)C(Cl)=C(Cl)C(Cl)=C1Cl

>  <InChI>
InChI=1S/C12H2Cl6O/c13-4-1-3-6(2-5(4)14)19-12-7(3)8(15)9(16)10(17)11(12)18/h1-2H

>  <InChIKey>
LVYBAQIVPKCOEE-UHFFFAOYSA-N

>  <Kingdom>
Organic compounds

>  <Superclass>
Organoheterocyclic compounds

>  <Class>
Benzofurans

>  <Subclass>
Dibenzofurans

>  <Parent Level 1>
Chlorinated dibenzofurans

>  <Parent Level 2>
Polychlorinated dibenzofurans

>  <Parent Level 3>


>  <cLogP>
7.0641

>  <cLogS>
-8.692

>  <Druglikeness>
-1.9658

>  <NP-class probability>
0.05

>  <SmilesFragFp 3>


>  <MS_READY_SMILES>
ClC1=CC2=C(C=C1Cl)C1=C(O2)C(Cl)=C(Cl)C(Cl)=C1Cl

>  <MS_READY_InChI>
InChI=1S/C12H2Cl6O/c13-4-1-3-6(2-5(4)14)19-12-7(3)8(15)9(16)10(17)11(12)18/h1-2H

>  <QSAR_READY_SMILES>
ClC1=CC2=C(C=C1Cl)C1=C(O2)C(Cl)=C(Cl)C(Cl)=C1Cl

>  <QSAR_READY_InChI>
InChI=1S/C12H2Cl6O/c13-4-1-3-6(2-5(4)14)19-12-7(3)8(15)9(16)10(17)11(12)18/h1-2H

>  <DTXSID>
DTXSID6029915

>  <DTXCID>
DTXCID009915

>  <CASRN>
70648-26-9

>  <EXPOCAST_MEDIAN_EXPOSURE_PREDICTION_MG/KG-BW/DAY>
3.24E-08

>  <BIOCONCENTRATION_FACTOR_TEST_PRED>
10351.4

>  <BOILING_POINT_DEGC_TEST_PRED>
441.428

>  <48HR_DAPHNIA_LC50_MOL/L_TEST_PRED>
6.50E-08

>  <DENSITY_G/CM^3_TEST_PRED>
1.74

>  <DEVTOX_TEST_PRED>
0.569

>  <96HR_FATHEAD_MINNOW_MOL/L_TEST_PRED>
4.76E-08

>  <FLASH_POINT_DEGC_TEST_PRED>
202.788

>  <MELTING_POINT_DEGC_TEST_PRED>
211.818

>  <AMES_MUTAGENICITY_TEST_PRED>
0.3

>  <ORAL_RAT_LD50_MOL/KG_TEST_PRED>
-

>  <SURFACE_TENSION_DYN/CM_TEST_PRED>
-

>  <THERMAL_CONDUCTIVITY_MW/(M*K)_TEST_PRED>
-

>  <TETRAHYMENA_PYRIFORMIS_IGC50_MOL/L_TEST_PRED>
7.08E-08

>  <VISCOSITY_CP_CP_TEST_PRED>
-

>  <VAPOR_PRESSURE_MMHG_TEST_PRED>
6.07E-10

>  <WATER_SOLUBILITY_MOL/L_TEST_PRED>
1.30E-10

>  <ATMOSPHERIC_HYDROXYLATION_RATE_(AOH)_CM3/MOLECULE*SEC_OPERA_PRED>
9.43E-13

>  <BIOCONCENTRATION_FACTOR_OPERA_PRED>
7419.13

>  <BIODEGRADATION_HALF_LIFE_DAYS_DAYS_OPERA_PRED>
22.4043

>  <BOILING_POINT_DEGC_OPERA_PRED>
427.863

>  <HENRYS_LAW_ATM-M3/MOLE_OPERA_PRED>
0.000364452

>  <OPERA_KM_DAYS_OPERA_PRED>
10.4145

>  <OCTANOL_AIR_PARTITION_COEFF_LOGKOA_OPERA_PRED>
10.8789

>  <SOIL_ADSORPTION_COEFFICIENT_KOC_L/KG_OPERA_PRED>
1730210

>  <OCTANOL_WATER_PARTITION_LOGP_OPERA_PRED>
7.44651

>  <MELTING_POINT_DEGC_OPERA_PRED>
227.648

>  <VAPOR_PRESSURE_MMHG_OPERA_PRED>
2.13E-09

>  <WATER_SOLUBILITY_MOL/L_OPERA_PRED>
2.21E-11

>  <Shape Index>
0.47368

>  <Molecular Flexibility>
0

>  <Molecular Complexity>
0.89827

>  <Electronegative Atoms>
7

>  <Stereo Centers>
0

>  <Rotatable Bonds>
0

>  <Rings Closures>
3

>  <Aromatic Rings>
3

>  <Aromatic Atoms>
13

>  <Amides>
0

>  <Amines>
0

>  <Aromatic Nitrogens>
0

>  <Shape Index 2>
0.47368

>  <Molecular Flexibility 2>
0

>  <Molecular Complexity 2>
0.89827

>  <Non-C/H Atoms>
7

>  <Electronegative Atoms 2>
7

>  <Stereo Centers 2>
0

>  <Rotatable Bonds 2>
0

>  <Rings Closures 2>
3

>  <Aromatic Rings 2>
3

>  <Aromatic Atoms 2>
13

>  <sp3-Atoms>
0

>  <Amides 2>
0

>  <Amines 2>
0

>  <Aromatic Nitrogens 2>
0

>  <Basic Nitrogens>
0

$$$$
1,2,3,4,6,7,8-Heptachlorodibenzofuran
Actelion Java MolfileCreator 2.0

  0  0  0  0  0  0              0 V3000
M  V30 BEGIN CTAB
M  V30 COUNTS 20 22 0 0 0
M  V30 BEGIN ATOM
M  V30 1 Cl 0.0 0.0 0.0 0
M  V30 2 C -1.3089 -0.7429 0.0 0
M  V30 3 C -2.6178 0.0117 0.0 0
M  V30 4 C -1.3207 -2.2287 0.0 0
M  V30 5 Cl -2.6296 1.5211 0.0 0
M  V30 6 C -3.9267 -0.7193 0.0 0
M  V30 7 Cl -0.0353 -2.9716 0.0 0
M  V30 8 C -2.6296 -2.9716 0.0 0
M  V30 9 Cl -5.2357 0.0353 0.0 0
M  V30 10 C -3.9385 -2.2051 0.0 0
M  V30 11 O -2.948 -4.422 0.0 0
M  V30 12 C -5.0588 -3.1956 0.0 0
M  V30 13 C -4.4456 -4.5635 0.0 0
M  V30 14 C -6.5564 -3.0305 0.0 0
M  V30 15 C -5.3418 -5.7663 0.0 0
M  V30 16 C -7.4526 -4.2333 0.0 0
M  V30 17 Cl -4.7404 -7.1224 0.0 0
M  V30 18 C -6.8394 -5.6012 0.0 0
M  V30 19 Cl -8.9502 -4.0683 0.0 0
M  V30 20 Cl -7.7356 -6.804 0.0 0
M  V30 END ATOM
M  V30 BEGIN BOND
M  V30 1 1 1 2
M  V30 2 2 2 3
M  V30 3 1 2 4
M  V30 4 1 3 5
M  V30 5 1 3 6
M  V30 6 1 4 7
M  V30 7 2 4 8
M  V30 8 1 6 9
M  V30 9 2 6 10
M  V30 10 1 8 11
M  V30 11 1 10 12
M  V30 12 1 11 13
M  V30 13 1 12 14
M  V30 14 1 13 15
M  V30 15 2 14 16
M  V30 16 1 15 17
M  V30 17 2 15 18
M  V30 18 1 16 19
M  V30 19 1 18 20
M  V30 20 1 8 10
M  V30 21 2 12 13
M  V30 22 1 16 18
M  V30 END BOND
M  V30 END CTAB
M  END
>  <Molecule Name>
1,2,3,4,6,7,8-Heptachlorodibenzofuran

>  <Order (spectra)>
107

>  <NAME>
1,2,3,4,6,7,8-Heptachlorodibenzofuran

>  <Molecular Formula>
C12HOCl7

>  <Monoisotopic Mass>
405.784704

>  <SMILES>
ClC1=CC2=C(OC3=C(Cl)C(Cl)=C(Cl)C(Cl)=C23)C(Cl)=C1Cl

>  <InChI>
InChI=1S/C12HCl7O/c13-3-1-2-4-6(15)7(16)8(17)10(19)12(4)20-11(2)9(18)5(3)14/h1H

>  <InChIKey>
WDMKCPIVJOGHBF-UHFFFAOYSA-N

>  <Kingdom>
Organic compounds

>  <Superclass>
Organoheterocyclic compounds

>  <Class>
Benzofurans

>  <Subclass>
Dibenzofurans

>  <Parent Level 1>
Chlorinated dibenzofurans

>  <Parent Level 2>
Polychlorinated dibenzofurans

>  <Parent Level 3>


>  <cLogP>
7.6701

>  <cLogS>
-9.428

>  <Druglikeness>
-1.9658

>  <NP-class probability>
0.05

>  <SmilesFragFp 3>


>  <MS_READY_SMILES>
ClC1=CC2=C(OC3=C(Cl)C(Cl)=C(Cl)C(Cl)=C23)C(Cl)=C1Cl

>  <MS_READY_InChI>
InChI=1S/C12HCl7O/c13-3-1-2-4-6(15)7(16)8(17)10(19)12(4)20-11(2)9(18)5(3)14/h1H

>  <QSAR_READY_SMILES>
ClC1=CC2=C(OC3=C(Cl)C(Cl)=C(Cl)C(Cl)=C23)C(Cl)=C1Cl

>  <QSAR_READY_InChI>
InChI=1S/C12HCl7O/c13-3-1-2-4-6(15)7(16)8(17)10(19)12(4)20-11(2)9(18)5(3)14/h1H

>  <DTXSID>
DTXSID8052350

>  <DTXCID>
DTXCID8030922

>  <CASRN>
67562-39-4

>  <EXPOCAST_MEDIAN_EXPOSURE_PREDICTION_MG/KG-BW/DAY>
3.08E-08

>  <BIOCONCENTRATION_FACTOR_TEST_PRED>
22803.4

>  <BOILING_POINT_DEGC_TEST_PRED>
481.653

>  <48HR_DAPHNIA_LC50_MOL/L_TEST_PRED>
1.70E-08

>  <DENSITY_G/CM^3_TEST_PRED>
1.943

>  <DEVTOX_TEST_PRED>
0.625

>  <96HR_FATHEAD_MINNOW_MOL/L_TEST_PRED>
1.57E-08

>  <FLASH_POINT_DEGC_TEST_PRED>
212.642

>  <MELTING_POINT_DEGC_TEST_PRED>
222.196

>  <AMES_MUTAGENICITY_TEST_PRED>
0.197

>  <ORAL_RAT_LD50_MOL/KG_TEST_PRED>
-

>  <SURFACE_TENSION_DYN/CM_TEST_PRED>
-

>  <THERMAL_CONDUCTIVITY_MW/(M*K)_TEST_PRED>
-

>  <TETRAHYMENA_PYRIFORMIS_IGC50_MOL/L_TEST_PRED>
3.05E-07

>  <VISCOSITY_CP_CP_TEST_PRED>
-

>  <VAPOR_PRESSURE_MMHG_TEST_PRED>
1.27E-10

>  <WATER_SOLUBILITY_MOL/L_TEST_PRED>
1.18E-10

>  <ATMOSPHERIC_HYDROXYLATION_RATE_(AOH)_CM3/MOLECULE*SEC_OPERA_PRED>
9.43E-13

>  <BIOCONCENTRATION_FACTOR_OPERA_PRED>
2818.66

>  <BIODEGRADATION_HALF_LIFE_DAYS_DAYS_OPERA_PRED>
38.4526

>  <BOILING_POINT_DEGC_OPERA_PRED>
464.199

>  <HENRYS_LAW_ATM-M3/MOLE_OPERA_PRED>
0.00104049

>  <OPERA_KM_DAYS_OPERA_PRED>
7.94457

>  <OCTANOL_AIR_PARTITION_COEFF_LOGKOA_OPERA_PRED>
11.2717

>  <SOIL_ADSORPTION_COEFFICIENT_KOC_L/KG_OPERA_PRED>
981862

>  <OCTANOL_WATER_PARTITION_LOGP_OPERA_PRED>
7.92013

>  <MELTING_POINT_DEGC_OPERA_PRED>
232.898

>  <VAPOR_PRESSURE_MMHG_OPERA_PRED>
3.56E-11

>  <WATER_SOLUBILITY_MOL/L_OPERA_PRED>
3.29E-12

>  <Shape Index>
0.45

>  <Molecular Flexibility>
0

>  <Molecular Complexity>
0.91876

>  <Electronegative Atoms>
8

>  <Stereo Centers>
0

>  <Rotatable Bonds>
0

>  <Rings Closures>
3

>  <Aromatic Rings>
3

>  <Aromatic Atoms>
13

>  <Amides>
0

>  <Amines>
0

>  <Aromatic Nitrogens>
0

>  <Shape Index 2>
0.45

>  <Molecular Flexibility 2>
0

>  <Molecular Complexity 2>
0.91876

>  <Non-C/H Atoms>
8

>  <Electronegative Atoms 2>
8

>  <Stereo Centers 2>
0

>  <Rotatable Bonds 2>
0

>  <Rings Closures 2>
3

>  <Aromatic Rings 2>
3

>  <Aromatic Atoms 2>
13

>  <sp3-Atoms>
0

>  <Amides 2>
0

>  <Amines 2>
0

>  <Aromatic Nitrogens 2>
0

>  <Basic Nitrogens>
0

$$$$
2,3,7,8-Tetrachlorodibenzofuran
Actelion Java MolfileCreator 2.0

  0  0  0  0  0  0              0 V3000
M  V30 BEGIN CTAB
M  V30 COUNTS 17 19 0 0 0
M  V30 BEGIN ATOM
M  V30 1 Cl 0.0 0.0 0.0 0
M  V30 2 C -1.3079 -0.7423 0.0 0
M  V30 3 C -2.6159 0.0117 0.0 0
M  V30 4 C -1.3197 -2.227 0.0 0
M  V30 5 Cl -2.6277 1.52 0.0 0
M  V30 6 C -3.9239 -0.7187 0.0 0
M  V30 7 C -2.6277 -2.9694 0.0 0
M  V30 8 C -3.9356 -2.2035 0.0 0
M  V30 9 O -2.9458 -4.4188 0.0 0
M  V30 10 C -5.0551 -3.1933 0.0 0
M  V30 11 C -4.4423 -4.5602 0.0 0
M  V30 12 C -6.5516 -3.0283 0.0 0
M  V30 13 C -5.3379 -5.7621 0.0 0
M  V30 14 C -7.4471 -4.2302 0.0 0
M  V30 15 C -6.8344 -5.5971 0.0 0
M  V30 16 Cl -8.9436 -4.0653 0.0 0
M  V30 17 Cl -7.7299 -6.799 0.0 0
M  V30 END ATOM
M  V30 BEGIN BOND
M  V30 1 1 1 2
M  V30 2 2 2 3
M  V30 3 1 2 4
M  V30 4 1 3 5
M  V30 5 1 3 6
M  V30 6 2 4 7
M  V30 7 2 6 8
M  V30 8 1 7 9
M  V30 9 1 8 10
M  V30 10 1 9 11
M  V30 11 1 10 12
M  V30 12 1 11 13
M  V30 13 2 12 14
M  V30 14 2 13 15
M  V30 15 1 14 16
M  V30 16 1 15 17
M  V30 17 1 7 8
M  V30 18 2 10 11
M  V30 19 1 14 15
M  V30 END BOND
M  V30 END CTAB
M  END
>  <Molecule Name>
2,3,7,8-Tetrachlorodibenzofuran

>  <Order (spectra)>
108

>  <NAME>
2,3,7,8-Tetrachlorodibenzofuran

>  <Molecular Formula>
C12H4OCl4

>  <Monoisotopic Mass>
303.901623

>  <SMILES>
ClC1=CC2=C(C=C1Cl)C1=CC(Cl)=C(Cl)C=C1O2

>  <InChI>
InChI=1S/C12H4Cl4O/c13-7-1-5-6-2-8(14)10(16)4-12(6)17-11(5)3-9(7)15/h1-4H

>  <InChIKey>
KSMVNVHUTQZITP-UHFFFAOYSA-N

>  <Kingdom>
Organic compounds

>  <Superclass>
Organoheterocyclic compounds

>  <Class>
Benzofurans

>  <Subclass>
Dibenzofurans

>  <Parent Level 1>
Chlorinated dibenzofurans

>  <Parent Level 2>
Polychlorinated dibenzofurans

>  <Parent Level 3>


>  <cLogP>
5.8521

>  <cLogS>
-7.22

>  <Druglikeness>
-1.9658

>  <NP-class probability>
0.05

>  <SmilesFragFp 3>


>  <MS_READY_SMILES>
ClC1=CC2=C(C=C1Cl)C1=CC(Cl)=C(Cl)C=C1O2

>  <MS_READY_InChI>
InChI=1S/C12H4Cl4O/c13-7-1-5-6-2-8(14)10(16)4-12(6)17-11(5)3-9(7)15/h1-4H

>  <QSAR_READY_SMILES>
ClC1=CC2=C(C=C1Cl)C1=CC(Cl)=C(Cl)C=C1O2

>  <QSAR_READY_InChI>
InChI=1S/C12H4Cl4O/c13-7-1-5-6-2-8(14)10(16)4-12(6)17-11(5)3-9(7)15/h1-4H

>  <DTXSID>
DTXSID3052147

>  <DTXCID>
DTXCID8030716

>  <CASRN>
51207-31-9

>  <EXPOCAST_MEDIAN_EXPOSURE_PREDICTION_MG/KG-BW/DAY>
8.71E-08

>  <BIOCONCENTRATION_FACTOR_TEST_PRED>
3741.11

>  <BOILING_POINT_DEGC_TEST_PRED>
395.049

>  <48HR_DAPHNIA_LC50_MOL/L_TEST_PRED>
2.93E-07

>  <DENSITY_G/CM^3_TEST_PRED>
1.548

>  <DEVTOX_TEST_PRED>
0.53

>  <96HR_FATHEAD_MINNOW_MOL/L_TEST_PRED>
2.59E-07

>  <FLASH_POINT_DEGC_TEST_PRED>
186.737

>  <MELTING_POINT_DEGC_TEST_PRED>
199.865

>  <AMES_MUTAGENICITY_TEST_PRED>
0.449

>  <ORAL_RAT_LD50_MOL/KG_TEST_PRED>
4.94E-05

>  <SURFACE_TENSION_DYN/CM_TEST_PRED>
-

>  <THERMAL_CONDUCTIVITY_MW/(M*K)_TEST_PRED>
-

>  <TETRAHYMENA_PYRIFORMIS_IGC50_MOL/L_TEST_PRED>
7.19E-07

>  <VISCOSITY_CP_CP_TEST_PRED>
-

>  <VAPOR_PRESSURE_MMHG_TEST_PRED>
2.70E-08

>  <WATER_SOLUBILITY_MOL/L_TEST_PRED>
2.22E-09

>  <ATMOSPHERIC_HYDROXYLATION_RATE_(AOH)_CM3/MOLECULE*SEC_OPERA_PRED>
9.57E-13

>  <BIOCONCENTRATION_FACTOR_OPERA_PRED>
4037.3

>  <BIODEGRADATION_HALF_LIFE_DAYS_DAYS_OPERA_PRED>
16.2032

>  <BOILING_POINT_DEGC_OPERA_PRED>
395.182

>  <HENRYS_LAW_ATM-M3/MOLE_OPERA_PRED>
1.69E-05

>  <OPERA_KM_DAYS_OPERA_PRED>
3.63989

>  <OCTANOL_AIR_PARTITION_COEFF_LOGKOA_OPERA_PRED>
9.75005

>  <SOIL_ADSORPTION_COEFFICIENT_KOC_L/KG_OPERA_PRED>
431506

>  <OCTANOL_WATER_PARTITION_LOGP_OPERA_PRED>
6.52546

>  <MELTING_POINT_DEGC_OPERA_PRED>
219.201

>  <VAPOR_PRESSURE_MMHG_OPERA_PRED>
2.05E-08

>  <WATER_SOLUBILITY_MOL/L_OPERA_PRED>
1.77E-09

>  <Shape Index>
0.52941

>  <Molecular Flexibility>
0

>  <Molecular Complexity>
0.84047

>  <Electronegative Atoms>
5

>  <Stereo Centers>
0

>  <Rotatable Bonds>
0

>  <Rings Closures>
3

>  <Aromatic Rings>
3

>  <Aromatic Atoms>
13

>  <Amides>
0

>  <Amines>
0

>  <Aromatic Nitrogens>
0

>  <Shape Index 2>
0.52941

>  <Molecular Flexibility 2>
0

>  <Molecular Complexity 2>
0.84047

>  <Non-C/H Atoms>
5

>  <Electronegative Atoms 2>
5

>  <Stereo Centers 2>
0

>  <Rotatable Bonds 2>
0

>  <Rings Closures 2>
3

>  <Aromatic Rings 2>
3

>  <Aromatic Atoms 2>
13

>  <sp3-Atoms>
0

>  <Amides 2>
0

>  <Amines 2>
0

>  <Aromatic Nitrogens 2>
0

>  <Basic Nitrogens>
0

$$$$
Galaxolide
Actelion Java MolfileCreator 2.0

  0  0  0  0  0  0              0 V3000
M  V30 BEGIN CTAB
M  V30 COUNTS 19 21 0 0 0
M  V30 BEGIN ATOM
M  V30 1 O 0.0 0.0 0.0 0
M  V30 2 C -0.765 -1.2829 0.0 0
M  V30 3 C -0.765 1.3065 0.0 0
M  V30 4 C -2.2716 -1.2711 0.0 0
M  V30 5 C -2.2716 1.3182 0.0 0
M  V30 6 C -3.0249 0.0353 0.0 0
M  V30 7 C -3.0249 -2.5541 0.0 0
M  V30 8 C -3.0249 2.6247 0.0 0
M  V30 9 C -4.5315 0.047 0.0 0
M  V30 10 C -4.5315 -2.5423 0.0 0
M  V30 11 C -5.2848 -1.2358 0.0 0
M  V30 12 C -5.5438 -3.637 0.0 0
M  V30 13 C -6.7561 -1.5301 0.0 0
M  V30 14 C -6.9209 -3.0132 0.0 0
M  V30 15 C -6.0146 -5.0494 0.0 0
M  V30 16 C -4.5551 -4.7316 0.0 0
M  V30 17 C -7.2269 -0.0941 0.0 0
M  V30 18 C -8.2274 -1.2123 0.0 0
M  V30 19 C -8.2274 -3.7547 0.0 0
M  V30 END ATOM
M  V30 BEGIN BOND
M  V30 1 1 1 2
M  V30 2 1 1 3
M  V30 3 1 2 4
M  V30 4 1 3 5
M  V30 5 2 4 6
M  V30 6 1 4 7
M  V30 7 1 5 8
M  V30 8 1 6 9
M  V30 9 2 7 10
M  V30 10 2 9 11
M  V30 11 1 10 12
M  V30 12 1 11 13
M  V30 13 1 12 14
M  V30 14 1 12 15
M  V30 15 1 12 16
M  V30 16 1 13 17
M  V30 17 1 13 18
M  V30 18 1 14 19
M  V30 19 1 5 6
M  V30 20 1 10 11
M  V30 21 1 13 14
M  V30 END BOND
M  V30 END CTAB
M  END
>  <Molecule Name>
Galaxolide

>  <Order (spectra)>
155

>  <NAME>
Galaxolide

>  <Molecular Formula>
C18H26O

>  <Monoisotopic Mass>
258.198365

>  <SMILES>
CC1C(C)(C)C2=CC3=C(C=C2C1(C)C)C(C)COC3

>  <InChI>
InChI=1S/C18H26O/c1-11-9-19-10-13-7-15-16(8-14(11)13)18(5,6)12(2)17(15,3)4/h7-8,11-12H,9-10H2,1-6H3

>  <InChIKey>
ONKNPOPIGWHAQC-UHFFFAOYSA-N

>  <Kingdom>
Organic compounds

>  <Superclass>
Organoheterocyclic compounds

>  <Class>
Benzopyrans

>  <Subclass>
2-benzopyrans

>  <Parent Level 1>
2-benzopyrans

>  <Parent Level 2>


>  <Parent Level 3>


>  <cLogP>
3.934

>  <cLogS>
-4.641

>  <Druglikeness>
-4.2026

>  <NP-class probability>
0.37

>  <SmilesFragFp 3>


>  <MS_READY_SMILES>
CC1C(C)(C)C2=CC3=C(C=C2C1(C)C)C(C)COC3

>  <MS_READY_InChI>
InChI=1S/C18H26O/c1-11-9-19-10-13-7-15-16(8-14(11)13)18(5,6)12(2)17(15,3)4/h7-8,11-12H,9-10H2,1-6H3

>  <QSAR_READY_SMILES>
CC1C(C)(C)C2=CC3=C(C=C2C1(C)C)C(C)COC3

>  <QSAR_READY_InChI>
InChI=1S/C18H26O/c1-11-9-19-10-13-7-15-16(8-14(11)13)18(5,6)12(2)17(15,3)4/h7-8,11-12H,9-10H2,1-6H3

>  <DTXSID>
DTXSID8027373

>  <DTXCID>
DTXCID607373

>  <CASRN>
1222-05-5

>  <EXPOCAST_MEDIAN_EXPOSURE_PREDICTION_MG/KG-BW/DAY>
1.05E-07

>  <BIOCONCENTRATION_FACTOR_TEST_PRED>
1667.25

>  <BOILING_POINT_DEGC_TEST_PRED>
312.099

>  <48HR_DAPHNIA_LC50_MOL/L_TEST_PRED>
2.72E-06

>  <DENSITY_G/CM^3_TEST_PRED>
0.964

>  <DEVTOX_TEST_PRED>
0.709

>  <96HR_FATHEAD_MINNOW_MOL/L_TEST_PRED>
4.80E-06

>  <FLASH_POINT_DEGC_TEST_PRED>
148.724

>  <MELTING_POINT_DEGC_TEST_PRED>
34.352

>  <AMES_MUTAGENICITY_TEST_PRED>
-0.048

>  <ORAL_RAT_LD50_MOL/KG_TEST_PRED>
0.00320627

>  <SURFACE_TENSION_DYN/CM_TEST_PRED>
-

>  <THERMAL_CONDUCTIVITY_MW/(M*K)_TEST_PRED>
106.834

>  <TETRAHYMENA_PYRIFORMIS_IGC50_MOL/L_TEST_PRED>
2.37E-05

>  <VISCOSITY_CP_CP_TEST_PRED>
12.4165

>  <VAPOR_PRESSURE_MMHG_TEST_PRED>
0.000385478

>  <WATER_SOLUBILITY_MOL/L_TEST_PRED>
1.50E-05

>  <ATMOSPHERIC_HYDROXYLATION_RATE_(AOH)_CM3/MOLECULE*SEC_OPERA_PRED>
1.76E-11

>  <BIOCONCENTRATION_FACTOR_OPERA_PRED>
787.789

>  <BIODEGRADATION_HALF_LIFE_DAYS_DAYS_OPERA_PRED>
25.0139

>  <BOILING_POINT_DEGC_OPERA_PRED>
325.002

>  <HENRYS_LAW_ATM-M3/MOLE_OPERA_PRED>
0.000304491

>  <OPERA_KM_DAYS_OPERA_PRED>
2.75698

>  <OCTANOL_AIR_PARTITION_COEFF_LOGKOA_OPERA_PRED>
8.18396

>  <SOIL_ADSORPTION_COEFFICIENT_KOC_L/KG_OPERA_PRED>
74355.3

>  <OCTANOL_WATER_PARTITION_LOGP_OPERA_PRED>
5.89831

>  <MELTING_POINT_DEGC_OPERA_PRED>
-4.98196

>  <VAPOR_PRESSURE_MMHG_OPERA_PRED>
0.000540769

>  <WATER_SOLUBILITY_MOL/L_OPERA_PRED>
6.72E-06

>  <Shape Index>
0.42105

>  <Molecular Flexibility>
0.14622

>  <Molecular Complexity>
0.86391

>  <Electronegative Atoms>
1

>  <Stereo Centers>
2

>  <Rotatable Bonds>
0

>  <Rings Closures>
3

>  <Aromatic Rings>
1

>  <Aromatic Atoms>
6

>  <Amides>
0

>  <Amines>
0

>  <Aromatic Nitrogens>
0

>  <Shape Index 2>
0.42105

>  <Molecular Flexibility 2>
0.14622

>  <Molecular Complexity 2>
0.86391

>  <Non-C/H Atoms>
1

>  <Electronegative Atoms 2>
1

>  <Stereo Centers 2>
2

>  <Rotatable Bonds 2>
0

>  <Rings Closures 2>
3

>  <Aromatic Rings 2>
1

>  <Aromatic Atoms 2>
6

>  <sp3-Atoms>
13

>  <Amides 2>
0

>  <Amines 2>
0

>  <Aromatic Nitrogens 2>
0

>  <Basic Nitrogens>
0

$$$$
Acibenzolar-S-methyl
Actelion Java MolfileCreator 2.0

  0  0  0  0  0  0              0 V3000
M  V30 BEGIN CTAB
M  V30 COUNTS 13 14 0 0 0
M  V30 BEGIN ATOM
M  V30 1 S 0.0 0.0 0.0 0
M  V30 2 N 1.4733 -0.1414 0.0 0
M  V30 3 C -0.3182 1.4733 0.0 0
M  V30 4 N 2.0745 1.2376 0.0 0
M  V30 5 C -1.6266 2.2277 0.0 0
M  V30 6 C 0.9665 2.2277 0.0 0
M  V30 7 C -2.9349 1.4851 0.0 0
M  V30 8 C -1.6383 3.7364 0.0 0
M  V30 9 C 0.9547 3.7364 0.0 0
M  V30 10 S -4.2433 2.2395 0.0 0
M  V30 11 O -2.9467 0.0 0.0 0
M  V30 12 C -0.3536 4.4908 0.0 0
M  V30 13 C -5.5517 1.4969 0.0 0
M  V30 END ATOM
M  V30 BEGIN BOND
M  V30 1 1 1 2
M  V30 2 1 1 3
M  V30 3 2 2 4
M  V30 4 2 3 5
M  V30 5 1 3 6
M  V30 6 1 5 7
M  V30 7 1 5 8
M  V30 8 2 6 9
M  V30 9 1 7 10
M  V30 10 2 7 11
M  V30 11 2 8 12
M  V30 12 1 10 13
M  V30 13 1 4 6
M  V30 14 1 9 12
M  V30 END BOND
M  V30 END CTAB
M  END
>  <Molecule Name>
Acibenzolar-S-methyl

>  <Order (spectra)>
312

>  <NAME>
Acibenzolar-S-methyl

>  <Molecular Formula>
C8H6N2OS2

>  <Monoisotopic Mass>
209.992153

>  <SMILES>
CSC(=O)C1=CC=CC2=C1SN=N2

>  <InChI>
InChI=1S/C8H6N2OS2/c1-12-8(11)5-3-2-4-6-7(5)13-10-9-6/h2-4H,1H3

>  <InChIKey>
UELITFHSCLAHKR-UHFFFAOYSA-N

>  <Kingdom>
Organic compounds

>  <Superclass>
Organoheterocyclic compounds

>  <Class>
Benzothiadiazoles

>  <Subclass>


>  <Parent Level 1>
Benzothiadiazoles

>  <Parent Level 2>


>  <Parent Level 3>


>  <cLogP>
1.6106

>  <cLogS>
-3.807

>  <Druglikeness>
-4.5873

>  <NP-class probability>
0.15

>  <SmilesFragFp 3>


>  <MS_READY_SMILES>
CSC(=O)C1=CC=CC2=C1SN=N2

>  <MS_READY_InChI>
InChI=1S/C8H6N2OS2/c1-12-8(11)5-3-2-4-6-7(5)13-10-9-6/h2-4H,1H3

>  <QSAR_READY_SMILES>
CSC(=O)C1=CC=CC2=C1SN=N2

>  <QSAR_READY_InChI>
InChI=1S/C8H6N2OS2/c1-12-8(11)5-3-2-4-6-7(5)13-10-9-6/h2-4H,1H3

>  <DTXSID>
DTXSID1032519

>  <DTXCID>
DTXCID9012519

>  <CASRN>
135158-54-2

>  <EXPOCAST_MEDIAN_EXPOSURE_PREDICTION_MG/KG-BW/DAY>
1.18E-05

>  <BIOCONCENTRATION_FACTOR_TEST_PRED>
-

>  <BOILING_POINT_DEGC_TEST_PRED>
-

>  <48HR_DAPHNIA_LC50_MOL/L_TEST_PRED>
-

>  <DENSITY_G/CM^3_TEST_PRED>
1.398

>  <DEVTOX_TEST_PRED>
0.647

>  <96HR_FATHEAD_MINNOW_MOL/L_TEST_PRED>
-

>  <FLASH_POINT_DEGC_TEST_PRED>
-

>  <MELTING_POINT_DEGC_TEST_PRED>
-

>  <AMES_MUTAGENICITY_TEST_PRED>
-

>  <ORAL_RAT_LD50_MOL/KG_TEST_PRED>
-

>  <SURFACE_TENSION_DYN/CM_TEST_PRED>
-

>  <THERMAL_CONDUCTIVITY_MW/(M*K)_TEST_PRED>
-

>  <TETRAHYMENA_PYRIFORMIS_IGC50_MOL/L_TEST_PRED>
-

>  <VISCOSITY_CP_CP_TEST_PRED>
-

>  <VAPOR_PRESSURE_MMHG_TEST_PRED>
-

>  <WATER_SOLUBILITY_MOL/L_TEST_PRED>
-

>  <ATMOSPHERIC_HYDROXYLATION_RATE_(AOH)_CM3/MOLECULE*SEC_OPERA_PRED>
4.62E-11

>  <BIOCONCENTRATION_FACTOR_OPERA_PRED>
9.25678

>  <BIODEGRADATION_HALF_LIFE_DAYS_DAYS_OPERA_PRED>
3.18068

>  <BOILING_POINT_DEGC_OPERA_PRED>
267.018

>  <HENRYS_LAW_ATM-M3/MOLE_OPERA_PRED>
7.68E-07

>  <OPERA_KM_DAYS_OPERA_PRED>
0.0798104

>  <OCTANOL_AIR_PARTITION_COEFF_LOGKOA_OPERA_PRED>
6.71771

>  <SOIL_ADSORPTION_COEFFICIENT_KOC_L/KG_OPERA_PRED>
946.203

>  <OCTANOL_WATER_PARTITION_LOGP_OPERA_PRED>
3.09751

>  <MELTING_POINT_DEGC_OPERA_PRED>
132.884

>  <VAPOR_PRESSURE_MMHG_OPERA_PRED>
3.29E-06

>  <WATER_SOLUBILITY_MOL/L_OPERA_PRED>
3.66E-05

>  <Shape Index>
0.53846

>  <Molecular Flexibility>
0.29745

>  <Molecular Complexity>
0.73028

>  <Electronegative Atoms>
5

>  <Stereo Centers>
0

>  <Rotatable Bonds>
2

>  <Rings Closures>
2

>  <Aromatic Rings>
2

>  <Aromatic Atoms>
9

>  <Amides>
0

>  <Amines>
0

>  <Aromatic Nitrogens>
2

>  <Shape Index 2>
0.53846

>  <Molecular Flexibility 2>
0.29745

>  <Molecular Complexity 2>
0.73028

>  <Non-C/H Atoms>
5

>  <Electronegative Atoms 2>
5

>  <Stereo Centers 2>
0

>  <Rotatable Bonds 2>
2

>  <Rings Closures 2>
2

>  <Aromatic Rings 2>
2

>  <Aromatic Atoms 2>
9

>  <sp3-Atoms>
2

>  <Amides 2>
0

>  <Amines 2>
0

>  <Aromatic Nitrogens 2>
2

>  <Basic Nitrogens>
0

$$$$
Methabenzthiazuron
Actelion Java MolfileCreator 2.0

  0  0  0  0  0  0              0 V3000
M  V30 BEGIN CTAB
M  V30 COUNTS 15 16 0 0 0
M  V30 BEGIN ATOM
M  V30 1 S 0.0 0.0 0.0 0
M  V30 2 C -1.3843 -0.6034 0.0 0
M  V30 3 C 0.9939 -1.1004 0.0 0
M  V30 4 N -1.2423 -2.0824 0.0 0
M  V30 5 N -2.6977 0.1538 0.0 0
M  V30 6 C 0.2366 -2.3901 0.0 0
M  V30 7 C 2.4847 -1.0885 0.0 0
M  V30 8 C -4.0111 -0.5916 0.0 0
M  V30 9 C -2.7096 1.6683 0.0 0
M  V30 10 C 0.982 -3.6798 0.0 0
M  V30 11 C 3.2302 -2.3783 0.0 0
M  V30 12 O -4.023 -2.0824 0.0 0
M  V30 13 N -5.3245 0.1656 0.0 0
M  V30 14 C 2.4729 -3.668 0.0 0
M  V30 15 C -6.6379 -0.5797 0.0 0
M  V30 END ATOM
M  V30 BEGIN BOND
M  V30 1 1 1 2
M  V30 2 1 1 3
M  V30 3 2 2 4
M  V30 4 1 2 5
M  V30 5 2 3 6
M  V30 6 1 3 7
M  V30 7 1 5 8
M  V30 8 1 5 9
M  V30 9 1 6 10
M  V30 10 2 7 11
M  V30 11 2 8 12
M  V30 12 1 8 13
M  V30 13 2 10 14
M  V30 14 1 13 15
M  V30 15 1 4 6
M  V30 16 1 11 14
M  V30 END BOND
M  V30 END CTAB
M  END
>  <Molecule Name>
Methabenzthiazuron

>  <Order (spectra)>
251

>  <NAME>
Methabenzthiazuron

>  <Molecular Formula>
C10H11N3OS

>  <Monoisotopic Mass>
221.062282

>  <SMILES>
CNC(=O)N(C)C1=NC2=C(S1)C=CC=C2

>  <InChI>
InChI=1S/C10H11N3OS/c1-11-9(14)13(2)10-12-7-5-3-4-6-8(7)15-10/h3-6H,1-2H3,(H,11,14)

>  <InChIKey>
RRVIAQKBTUQODI-UHFFFAOYSA-N

>  <Kingdom>
Organic compounds

>  <Superclass>
Organoheterocyclic compounds

>  <Class>
Benzothiazoles

>  <Subclass>


>  <Parent Level 1>
Benzothiazoles

>  <Parent Level 2>


>  <Parent Level 3>


>  <cLogP>
2.1441

>  <cLogS>
-3.08

>  <Druglikeness>
0.93442

>  <NP-class probability>
0

>  <SmilesFragFp 3>


>  <MS_READY_SMILES>
CNC(=O)N(C)C1=NC2=C(S1)C=CC=C2

>  <MS_READY_InChI>
InChI=1S/C10H11N3OS/c1-11-9(14)13(2)10-12-7-5-3-4-6-8(7)15-10/h3-6H,1-2H3,(H,11,14)

>  <QSAR_READY_SMILES>
CNC(=O)N(C)C1=NC2=C(S1)C=CC=C2

>  <QSAR_READY_InChI>
InChI=1S/C10H11N3OS/c1-11-9(14)13(2)10-12-7-5-3-4-6-8(7)15-10/h3-6H,1-2H3,(H,11,14)

>  <DTXSID>
DTXSID0037570

>  <DTXCID>
DTXCID8017570

>  <CASRN>
18691-97-9

>  <EXPOCAST_MEDIAN_EXPOSURE_PREDICTION_MG/KG-BW/DAY>
6.07E-07

>  <BIOCONCENTRATION_FACTOR_TEST_PRED>
4.59198

>  <BOILING_POINT_DEGC_TEST_PRED>
365.178

>  <48HR_DAPHNIA_LC50_MOL/L_TEST_PRED>
5.81E-05

>  <DENSITY_G/CM^3_TEST_PRED>
1.333

>  <DEVTOX_TEST_PRED>
0.702

>  <96HR_FATHEAD_MINNOW_MOL/L_TEST_PRED>
-

>  <FLASH_POINT_DEGC_TEST_PRED>
191.527

>  <MELTING_POINT_DEGC_TEST_PRED>
131.826

>  <AMES_MUTAGENICITY_TEST_PRED>
0.193

>  <ORAL_RAT_LD50_MOL/KG_TEST_PRED>
0.002208

>  <SURFACE_TENSION_DYN/CM_TEST_PRED>
-

>  <THERMAL_CONDUCTIVITY_MW/(M*K)_TEST_PRED>
-

>  <TETRAHYMENA_PYRIFORMIS_IGC50_MOL/L_TEST_PRED>
-

>  <VISCOSITY_CP_CP_TEST_PRED>
-

>  <VAPOR_PRESSURE_MMHG_TEST_PRED>
1.45E-06

>  <WATER_SOLUBILITY_MOL/L_TEST_PRED>
0.000294442

>  <ATMOSPHERIC_HYDROXYLATION_RATE_(AOH)_CM3/MOLECULE*SEC_OPERA_PRED>
1.52E-11

>  <BIOCONCENTRATION_FACTOR_OPERA_PRED>
3.73536

>  <BIODEGRADATION_HALF_LIFE_DAYS_DAYS_OPERA_PRED>
3.51431

>  <BOILING_POINT_DEGC_OPERA_PRED>
317.042

>  <HENRYS_LAW_ATM-M3/MOLE_OPERA_PRED>
8.53E-10

>  <OPERA_KM_DAYS_OPERA_PRED>
0.0793006

>  <OCTANOL_AIR_PARTITION_COEFF_LOGKOA_OPERA_PRED>
10.7409

>  <SOIL_ADSORPTION_COEFFICIENT_KOC_L/KG_OPERA_PRED>
628.36

>  <OCTANOL_WATER_PARTITION_LOGP_OPERA_PRED>
2.63741

>  <MELTING_POINT_DEGC_OPERA_PRED>
120.038

>  <VAPOR_PRESSURE_MMHG_OPERA_PRED>
1.13E-07

>  <WATER_SOLUBILITY_MOL/L_OPERA_PRED>
0.000269566

>  <Shape Index>
0.6

>  <Molecular Flexibility>
0.4219

>  <Molecular Complexity>
0.70492

>  <Electronegative Atoms>
5

>  <Stereo Centers>
0

>  <Rotatable Bonds>
1

>  <Rings Closures>
2

>  <Aromatic Rings>
2

>  <Aromatic Atoms>
9

>  <Amides>
2

>  <Amines>
0

>  <Aromatic Nitrogens>
1

>  <Shape Index 2>
0.6

>  <Molecular Flexibility 2>
0.4219

>  <Molecular Complexity 2>
0.70492

>  <Non-C/H Atoms>
5

>  <Electronegative Atoms 2>
5

>  <Stereo Centers 2>
0

>  <Rotatable Bonds 2>
1

>  <Rings Closures 2>
2

>  <Aromatic Rings 2>
2

>  <Aromatic Atoms 2>
9

>  <sp3-Atoms>
2

>  <Amides 2>
2

>  <Amines 2>
0

>  <Aromatic Nitrogens 2>
1

>  <Basic Nitrogens>
0

$$$$
Mefenacet
Actelion Java MolfileCreator 2.0

  0  0  0  0  0  0              0 V3000
M  V30 BEGIN CTAB
M  V30 COUNTS 21 23 0 0 0
M  V30 BEGIN ATOM
M  V30 1 S 0.0 0.0 0.0 0
M  V30 2 C -0.1655 -1.4781 0.0 0
M  V30 3 C 1.4545 0.3192 0.0 0
M  V30 4 O -1.4781 -2.2113 0.0 0
M  V30 5 N 1.1943 -2.0812 0.0 0
M  V30 6 C 2.1877 -0.9696 0.0 0
M  V30 7 C 2.1877 1.6319 0.0 0
M  V30 8 C -2.7908 -1.4545 0.0 0
M  V30 9 C 3.6777 -0.9578 0.0 0
M  V30 10 C 3.6777 1.6437 0.0 0
M  V30 11 C -4.1034 -2.1877 0.0 0
M  V30 12 C 4.4109 0.3547 0.0 0
M  V30 13 O -4.1152 -3.6777 0.0 0
M  V30 14 N -5.416 -1.4308 0.0 0
M  V30 15 C -5.4279 0.0827 0.0 0
M  V30 16 C -6.7287 -2.164 0.0 0
M  V30 17 C -4.1389 0.8396 0.0 0
M  V30 18 C -6.7405 0.8396 0.0 0
M  V30 19 C -4.1507 2.3532 0.0 0
M  V30 20 C -6.7523 2.3532 0.0 0
M  V30 21 C -5.4633 3.1101 0.0 0
M  V30 END ATOM
M  V30 BEGIN BOND
M  V30 1 1 1 2
M  V30 2 1 1 3
M  V30 3 1 2 4
M  V30 4 2 2 5
M  V30 5 2 3 6
M  V30 6 1 3 7
M  V30 7 1 4 8
M  V30 8 1 6 9
M  V30 9 2 7 10
M  V30 10 1 8 11
M  V30 11 2 9 12
M  V30 12 2 11 13
M  V30 13 1 11 14
M  V30 14 1 14 15
M  V30 15 1 14 16
M  V30 16 2 15 17
M  V30 17 1 15 18
M  V30 18 1 17 19
M  V30 19 2 18 20
M  V30 20 2 19 21
M  V30 21 1 5 6
M  V30 22 1 10 12
M  V30 23 1 20 21
M  V30 END BOND
M  V30 END CTAB
M  END
>  <Molecule Name>
Mefenacet

>  <Order (spectra)>
320

>  <NAME>
Mefenacet

>  <Molecular Formula>
C16H14N2O2S

>  <Monoisotopic Mass>
298.077598

>  <SMILES>
CN(C(=O)COC1=NC2=CC=CC=C2S1)C1=CC=CC=C1

>  <InChI>
InChI=1S/C16H14N2O2S/c1-18(12-7-3-2-4-8-12)15(19)11-20-16-17-13-9-5-6-10-14(13)21-16/h2-10H,11H2,1H3

>  <InChIKey>
XIGAUIHYSDTJHW-UHFFFAOYSA-N

>  <Kingdom>
Organic compounds

>  <Superclass>
Organoheterocyclic compounds

>  <Class>
Benzothiazoles

>  <Subclass>


>  <Parent Level 1>
Benzothiazoles

>  <Parent Level 2>


>  <Parent Level 3>


>  <cLogP>
3.4338

>  <cLogS>
-3.851

>  <Druglikeness>
2.6309

>  <NP-class probability>
0.01

>  <SmilesFragFp 3>


>  <MS_READY_SMILES>
CN(C(=O)COC1=NC2=CC=CC=C2S1)C1=CC=CC=C1

>  <MS_READY_InChI>
InChI=1S/C16H14N2O2S/c1-18(12-7-3-2-4-8-12)15(19)11-20-16-17-13-9-5-6-10-14(13)21-16/h2-10H,11H2,1H3

>  <QSAR_READY_SMILES>
CN(C(=O)COC1=NC2=CC=CC=C2S1)C1=CC=CC=C1

>  <QSAR_READY_InChI>
InChI=1S/C16H14N2O2S/c1-18(12-7-3-2-4-8-12)15(19)11-20-16-17-13-9-5-6-10-14(13)21-16/h2-10H,11H2,1H3

>  <DTXSID>
DTXSID7058173

>  <DTXCID>
DTXCID3031941

>  <CASRN>
73250-68-7

>  <EXPOCAST_MEDIAN_EXPOSURE_PREDICTION_MG/KG-BW/DAY>
1.46E-07

>  <BIOCONCENTRATION_FACTOR_TEST_PRED>
20.4644

>  <BOILING_POINT_DEGC_TEST_PRED>
380.36

>  <48HR_DAPHNIA_LC50_MOL/L_TEST_PRED>
2.70E-05

>  <DENSITY_G/CM^3_TEST_PRED>
1.342

>  <DEVTOX_TEST_PRED>
0.539

>  <96HR_FATHEAD_MINNOW_MOL/L_TEST_PRED>
-

>  <FLASH_POINT_DEGC_TEST_PRED>
253.073

>  <MELTING_POINT_DEGC_TEST_PRED>
124.123

>  <AMES_MUTAGENICITY_TEST_PRED>
0.398

>  <ORAL_RAT_LD50_MOL/KG_TEST_PRED>
0.00250035

>  <SURFACE_TENSION_DYN/CM_TEST_PRED>
-

>  <THERMAL_CONDUCTIVITY_MW/(M*K)_TEST_PRED>
-

>  <TETRAHYMENA_PYRIFORMIS_IGC50_MOL/L_TEST_PRED>
3.66E-05

>  <VISCOSITY_CP_CP_TEST_PRED>
97.051

>  <VAPOR_PRESSURE_MMHG_TEST_PRED>
3.43E-08

>  <WATER_SOLUBILITY_MOL/L_TEST_PRED>
0.000109396

>  <ATMOSPHERIC_HYDROXYLATION_RATE_(AOH)_CM3/MOLECULE*SEC_OPERA_PRED>
1.38E-11

>  <BIOCONCENTRATION_FACTOR_OPERA_PRED>
17.3252

>  <BIODEGRADATION_HALF_LIFE_DAYS_DAYS_OPERA_PRED>
3.35264

>  <BOILING_POINT_DEGC_OPERA_PRED>
371.035

>  <HENRYS_LAW_ATM-M3/MOLE_OPERA_PRED>
6.65E-09

>  <OPERA_KM_DAYS_OPERA_PRED>
0.645886

>  <OCTANOL_AIR_PARTITION_COEFF_LOGKOA_OPERA_PRED>
11.5209

>  <SOIL_ADSORPTION_COEFFICIENT_KOC_L/KG_OPERA_PRED>
1367

>  <OCTANOL_WATER_PARTITION_LOGP_OPERA_PRED>
3.22944

>  <MELTING_POINT_DEGC_OPERA_PRED>
134.691

>  <VAPOR_PRESSURE_MMHG_OPERA_PRED>
4.82E-09

>  <WATER_SOLUBILITY_MOL/L_OPERA_PRED>
1.35E-05

>  <Shape Index>
0.61905

>  <Molecular Flexibility>
0.42847

>  <Molecular Complexity>
0.71194

>  <Electronegative Atoms>
5

>  <Stereo Centers>
0

>  <Rotatable Bonds>
4

>  <Rings Closures>
3

>  <Aromatic Rings>
3

>  <Aromatic Atoms>
15

>  <Amides>
1

>  <Amines>
0

>  <Aromatic Nitrogens>
1

>  <Shape Index 2>
0.61905

>  <Molecular Flexibility 2>
0.42847

>  <Molecular Complexity 2>
0.71194

>  <Non-C/H Atoms>
5

>  <Electronegative Atoms 2>
5

>  <Stereo Centers 2>
0

>  <Rotatable Bonds 2>
4

>  <Rings Closures 2>
3

>  <Aromatic Rings 2>
3

>  <Aromatic Atoms 2>
15

>  <sp3-Atoms>
3

>  <Amides 2>
1

>  <Amines 2>
0

>  <Aromatic Nitrogens 2>
1

>  <Basic Nitrogens>
0

$$$$
Tricyclazole
Actelion Java MolfileCreator 2.0

  0  0  0  0  0  0              0 V3000
M  V30 BEGIN CTAB
M  V30 COUNTS 13 15 0 0 0
M  V30 BEGIN ATOM
M  V30 1 S 0.0 0.0 0.0 0
M  V30 2 C -1.5011 0.1654 0.0 0
M  V30 3 C 0.2954 -1.4538 0.0 0
M  V30 4 N -2.6239 1.1819 0.0 0
M  V30 5 N -2.1275 -1.1938 0.0 0
M  V30 6 C -1.0165 -2.1984 0.0 0
M  V30 7 C 1.5838 -2.1984 0.0 0
M  V30 8 N -3.9359 0.4373 0.0 0
M  V30 9 C -3.6286 -1.0283 0.0 0
M  V30 10 C -1.0283 -3.6877 0.0 0
M  V30 11 C 1.572 -3.6877 0.0 0
M  V30 12 C 0.26 -4.4324 0.0 0
M  V30 13 C -2.3403 -4.4324 0.0 0
M  V30 END ATOM
M  V30 BEGIN BOND
M  V30 1 1 1 2
M  V30 2 1 1 3
M  V30 3 2 2 4
M  V30 4 1 2 5
M  V30 5 2 3 6
M  V30 6 1 3 7
M  V30 7 1 4 8
M  V30 8 1 5 9
M  V30 9 1 6 10
M  V30 10 2 7 11
M  V30 11 2 10 12
M  V30 12 1 10 13
M  V30 13 1 5 6
M  V30 14 2 8 9
M  V30 15 1 11 12
M  V30 END BOND
M  V30 END CTAB
M  END
>  <Molecule Name>
Tricyclazole

>  <Order (spectra)>
330

>  <NAME>
Tricyclazole

>  <Molecular Formula>
C9H7N3S

>  <Monoisotopic Mass>
189.036067

>  <SMILES>
CC1=C2N3C=NN=C3SC2=CC=C1

>  <InChI>
InChI=1S/C9H7N3S/c1-6-3-2-4-7-8(6)12-5-10-11-9(12)13-7/h2-5H,1H3

>  <InChIKey>
DQJCHOQLCLEDLL-UHFFFAOYSA-N

>  <Kingdom>
Organic compounds

>  <Superclass>
Organoheterocyclic compounds

>  <Class>
Benzotriazoles

>  <Subclass>
Triazolobenzothiazoles

>  <Parent Level 1>
Triazolobenzothiazoles

>  <Parent Level 2>


>  <Parent Level 3>


>  <cLogP>
1.8635

>  <cLogS>
-2.08

>  <Druglikeness>
2.269

>  <NP-class probability>
0.02

>  <SmilesFragFp 3>


>  <MS_READY_SMILES>
CC1=C2N3C=NN=C3SC2=CC=C1

>  <MS_READY_InChI>
InChI=1S/C9H7N3S/c1-6-3-2-4-7-8(6)12-5-10-11-9(12)13-7/h2-5H,1H3

>  <QSAR_READY_SMILES>
CC1=C2N3C=NN=C3SC2=CC=C1

>  <QSAR_READY_InChI>
InChI=1S/C9H7N3S/c1-6-3-2-4-7-8(6)12-5-10-11-9(12)13-7/h2-5H,1H3

>  <DTXSID>
DTXSID7037478

>  <DTXCID>
DTXCID5017478

>  <CASRN>
41814-78-2

>  <EXPOCAST_MEDIAN_EXPOSURE_PREDICTION_MG/KG-BW/DAY>
3.98E-06

>  <BIOCONCENTRATION_FACTOR_TEST_PRED>
-

>  <BOILING_POINT_DEGC_TEST_PRED>
-

>  <48HR_DAPHNIA_LC50_MOL/L_TEST_PRED>
-

>  <DENSITY_G/CM^3_TEST_PRED>
-

>  <DEVTOX_TEST_PRED>
0.622

>  <96HR_FATHEAD_MINNOW_MOL/L_TEST_PRED>
-

>  <FLASH_POINT_DEGC_TEST_PRED>
-

>  <MELTING_POINT_DEGC_TEST_PRED>
152.002

>  <AMES_MUTAGENICITY_TEST_PRED>
-

>  <ORAL_RAT_LD50_MOL/KG_TEST_PRED>
0.00201837

>  <SURFACE_TENSION_DYN/CM_TEST_PRED>
-

>  <THERMAL_CONDUCTIVITY_MW/(M*K)_TEST_PRED>
-

>  <TETRAHYMENA_PYRIFORMIS_IGC50_MOL/L_TEST_PRED>
-

>  <VISCOSITY_CP_CP_TEST_PRED>
-

>  <VAPOR_PRESSURE_MMHG_TEST_PRED>
-

>  <WATER_SOLUBILITY_MOL/L_TEST_PRED>
8.00E-05

>  <ATMOSPHERIC_HYDROXYLATION_RATE_(AOH)_CM3/MOLECULE*SEC_OPERA_PRED>
8.74E-11

>  <BIOCONCENTRATION_FACTOR_OPERA_PRED>
7.88723

>  <BIODEGRADATION_HALF_LIFE_DAYS_DAYS_OPERA_PRED>
5.28475

>  <BOILING_POINT_DEGC_OPERA_PRED>
275.012

>  <HENRYS_LAW_ATM-M3/MOLE_OPERA_PRED>
6.51E-08

>  <OPERA_KM_DAYS_OPERA_PRED>
0.21717

>  <OCTANOL_AIR_PARTITION_COEFF_LOGKOA_OPERA_PRED>
7.43306

>  <SOIL_ADSORPTION_COEFFICIENT_KOC_L/KG_OPERA_PRED>
1232.84

>  <OCTANOL_WATER_PARTITION_LOGP_OPERA_PRED>
1.69993

>  <MELTING_POINT_DEGC_OPERA_PRED>
186.844

>  <VAPOR_PRESSURE_MMHG_OPERA_PRED>
2.01E-07

>  <WATER_SOLUBILITY_MOL/L_OPERA_PRED>
0.00661044

>  <Shape Index>
0.53846

>  <Molecular Flexibility>
0

>  <Molecular Complexity>
0.80343

>  <Electronegative Atoms>
4

>  <Stereo Centers>
0

>  <Rotatable Bonds>
0

>  <Rings Closures>
3

>  <Aromatic Rings>
3

>  <Aromatic Atoms>
12

>  <Amides>
0

>  <Amines>
0

>  <Aromatic Nitrogens>
3

>  <Shape Index 2>
0.53846

>  <Molecular Flexibility 2>
0

>  <Molecular Complexity 2>
0.80343

>  <Non-C/H Atoms>
4

>  <Electronegative Atoms 2>
4

>  <Stereo Centers 2>
0

>  <Rotatable Bonds 2>
0

>  <Rings Closures 2>
3

>  <Aromatic Rings 2>
3

>  <Aromatic Atoms 2>
12

>  <sp3-Atoms>
1

>  <Amides 2>
0

>  <Amines 2>
0

>  <Aromatic Nitrogens 2>
3

>  <Basic Nitrogens>
0

$$$$
Thiofanox
Actelion Java MolfileCreator 2.0

  0  0  0  0  0  0              0 V3000
M  V30 BEGIN CTAB
M  V30 COUNTS 14 13 0 0 0
M  V30 BEGIN ATOM
M  V30 1 S 0.0 0.0 0.0 0
M  V30 2 C -1.3064 -0.7414 0.0 0
M  V30 3 C 1.2828 -0.7414 0.0 0
M  V30 4 C -2.6128 0.0117 0.0 0
M  V30 5 N -3.9192 -0.7297 0.0 0
M  V30 6 C -2.6245 1.5182 0.0 0
M  V30 7 O -5.2256 0.0235 0.0 0
M  V30 8 C -4.131 1.53 0.0 0
M  V30 9 C -2.6363 3.0247 0.0 0
M  V30 10 C -1.1416 1.53 0.0 0
M  V30 11 C -6.532 -0.7179 0.0 0
M  V30 12 O -6.5438 -2.2008 0.0 0
M  V30 13 N -7.8384 0.0353 0.0 0
M  V30 14 C -9.1448 -0.7061 0.0 0
M  V30 END ATOM
M  V30 BEGIN BOND
M  V30 1 1 1 2
M  V30 2 1 1 3
M  V30 3 1 2 4
M  V30 4 2 4 5 CFG=2
M  V30 5 1 4 6
M  V30 6 1 5 7
M  V30 7 1 6 8
M  V30 8 1 6 9
M  V30 9 1 6 10
M  V30 10 1 7 11
M  V30 11 2 11 12
M  V30 12 1 11 13
M  V30 13 1 13 14
M  V30 END BOND
M  V30 END CTAB
M  END
>  <Molecule Name>
Thiofanox

>  <Order (spectra)>
325

>  <NAME>
Thiofanox

>  <Molecular Formula>
C9H18N2O2S

>  <Monoisotopic Mass>
218.108898

>  <SMILES>
CNC(=O)ON=C(CSC)C(C)(C)C

>  <InChI>
InChI=1S/C9H18N2O2S/c1-9(2,3)7(6-14-5)11-13-8(12)10-4/h6H2,1-5H3,(H,10,12)

>  <InChIKey>
FZSVSABTBYGOQH-UHFFFAOYSA-N

>  <Kingdom>
Organic compounds

>  <Superclass>
Organic acids and derivatives

>  <Class>
Carboximidic acids and derivatives

>  <Subclass>


>  <Parent Level 1>
Carboximidic acids and derivatives

>  <Parent Level 2>


>  <Parent Level 3>


>  <cLogP>
2.3767

>  <cLogS>
-2.728

>  <Druglikeness>
-5.4818

>  <NP-class probability>
0.2

>  <SmilesFragFp 3>


>  <MS_READY_SMILES>
CNC(=O)ON=C(CSC)C(C)(C)C

>  <MS_READY_InChI>
InChI=1S/C9H18N2O2S/c1-9(2,3)7(6-14-5)11-13-8(12)10-4/h6H2,1-5H3,(H,10,12)

>  <QSAR_READY_SMILES>
CNC(=O)ON=C(CSC)C(C)(C)C

>  <QSAR_READY_InChI>
InChI=1S/C9H18N2O2S/c1-9(2,3)7(6-14-5)11-13-8(12)10-4/h6H2,1-5H3,(H,10,12)

>  <DTXSID>
DTXSID4042468

>  <DTXCID>
DTXCID2022468

>  <CASRN>
39196-18-4

>  <EXPOCAST_MEDIAN_EXPOSURE_PREDICTION_MG/KG-BW/DAY>
3.96E-06

>  <BIOCONCENTRATION_FACTOR_TEST_PRED>
7.8343

>  <BOILING_POINT_DEGC_TEST_PRED>
232.408

>  <48HR_DAPHNIA_LC50_MOL/L_TEST_PRED>
5.94E-06

>  <DENSITY_G/CM^3_TEST_PRED>
1.1

>  <DEVTOX_TEST_PRED>
0.495

>  <96HR_FATHEAD_MINNOW_MOL/L_TEST_PRED>
2.06E-05

>  <FLASH_POINT_DEGC_TEST_PRED>
139.613

>  <MELTING_POINT_DEGC_TEST_PRED>
52.71

>  <AMES_MUTAGENICITY_TEST_PRED>
0.434

>  <ORAL_RAT_LD50_MOL/KG_TEST_PRED>
2.90E-05

>  <SURFACE_TENSION_DYN/CM_TEST_PRED>
-

>  <THERMAL_CONDUCTIVITY_MW/(M*K)_TEST_PRED>
-

>  <TETRAHYMENA_PYRIFORMIS_IGC50_MOL/L_TEST_PRED>
-

>  <VISCOSITY_CP_CP_TEST_PRED>
-

>  <VAPOR_PRESSURE_MMHG_TEST_PRED>
8.38E-05

>  <WATER_SOLUBILITY_MOL/L_TEST_PRED>
0.0116681

>  <ATMOSPHERIC_HYDROXYLATION_RATE_(AOH)_CM3/MOLECULE*SEC_OPERA_PRED>
1.72E-11

>  <BIOCONCENTRATION_FACTOR_OPERA_PRED>
8.0476

>  <BIODEGRADATION_HALF_LIFE_DAYS_DAYS_OPERA_PRED>
3.54574

>  <BOILING_POINT_DEGC_OPERA_PRED>
279.92

>  <HENRYS_LAW_ATM-M3/MOLE_OPERA_PRED>
2.32E-08

>  <OPERA_KM_DAYS_OPERA_PRED>
0.148581

>  <OCTANOL_AIR_PARTITION_COEFF_LOGKOA_OPERA_PRED>
8.51995

>  <SOIL_ADSORPTION_COEFFICIENT_KOC_L/KG_OPERA_PRED>
89.9631

>  <OCTANOL_WATER_PARTITION_LOGP_OPERA_PRED>
2.74502

>  <MELTING_POINT_DEGC_OPERA_PRED>
57.0338

>  <VAPOR_PRESSURE_MMHG_OPERA_PRED>
0.000169467

>  <WATER_SOLUBILITY_MOL/L_OPERA_PRED>
0.0239389

>  <Shape Index>
0.64286

>  <Molecular Flexibility>
0.58077

>  <Molecular Complexity>
0.52968

>  <Electronegative Atoms>
5

>  <Stereo Centers>
0

>  <Rotatable Bonds>
5

>  <Rings Closures>
0

>  <Aromatic Rings>
0

>  <Aromatic Atoms>
0

>  <Amides>
1

>  <Amines>
0

>  <Aromatic Nitrogens>
0

>  <Shape Index 2>
0.64286

>  <Molecular Flexibility 2>
0.58077

>  <Molecular Complexity 2>
0.52968

>  <Non-C/H Atoms>
5

>  <Electronegative Atoms 2>
5

>  <Stereo Centers 2>
0

>  <Rotatable Bonds 2>
5

>  <Rings Closures 2>
0

>  <Aromatic Rings 2>
0

>  <Aromatic Atoms 2>
0

>  <sp3-Atoms>
9

>  <Amides 2>
1

>  <Amines 2>
0

>  <Aromatic Nitrogens 2>
0

>  <Basic Nitrogens>
0

$$$$
Vamidothion
Actelion Java MolfileCreator 2.0

  0  0  0  0  0  0              0 V3000
M  V30 BEGIN CTAB
M  V30 COUNTS 16 15 0 0 0
M  V30 BEGIN ATOM
M  V30 1 S 0.0 0.0 0.0 0
M  V30 2 P 1.2854 -0.7429 0.0 0
M  V30 3 C -1.309 -0.7429 0.0 0
M  V30 4 O -0.0235 -1.4741 0.0 0
M  V30 5 O 2.5708 0.0117 0.0 0
M  V30 6 O 1.2736 -2.2288 0.0 0
M  V30 7 C -2.618 0.0117 0.0 0
M  V30 8 C 3.8563 -0.7311 0.0 0
M  V30 9 C -0.0353 -2.9718 0.0 0
M  V30 10 S -3.9271 -0.7311 0.0 0
M  V30 11 C -5.2361 0.0235 0.0 0 CFG=2
M  V30 12 C -6.5451 -0.7193 0.0 0
M  V30 13 C -5.2479 1.5331 0.0 0
M  V30 14 O -6.5569 -2.2053 0.0 0
M  V30 15 N -7.8542 0.0353 0.0 0
M  V30 16 C -9.1632 -0.7075 0.0 0
M  V30 END ATOM
M  V30 BEGIN BOND
M  V30 1 1 1 2
M  V30 2 1 1 3
M  V30 3 2 2 4
M  V30 4 1 2 5
M  V30 5 1 2 6
M  V30 6 1 3 7
M  V30 7 1 5 8
M  V30 8 1 6 9
M  V30 9 1 7 10
M  V30 10 1 11 10 CFG=3
M  V30 11 1 11 12
M  V30 12 1 11 13
M  V30 13 2 12 14
M  V30 14 1 12 15
M  V30 15 1 15 16
M  V30 END BOND
M  V30 BEGIN COLLECTION
M  V30 MDLV30/STERAC1 ATOMS=(1 11)
M  V30 END COLLECTION
M  V30 END CTAB
M  END
>  <Molecule Name>
Vamidothion

>  <Order (spectra)>
246

>  <NAME>
Vamidothion

>  <Molecular Formula>
C8H18NO4PS2

>  <Monoisotopic Mass>
287.041486

>  <SMILES>
CNC(=O)C(C)SCCSP(=O)(OC)OC

>  <InChI>
InChI=1S/C8H18NO4PS2/c1-7(8(10)9-2)15-5-6-16-14(11,12-3)13-4/h7H,5-6H2,1-4H3,(H,9,10)/t7-/m0/s1

>  <InChIKey>
LESVOLZBIFDZGS-UHFFFAOYSA-N

>  <Kingdom>
Organic compounds

>  <Superclass>
Organic acids and derivatives

>  <Class>
Carboxylic acids and derivatives

>  <Subclass>
Carboxylic acid derivatives

>  <Parent Level 1>
Carboxylic acid amides

>  <Parent Level 2>
Secondary carboxylic acid amides

>  <Parent Level 3>


>  <cLogP>
0.1772

>  <cLogS>
-0.478

>  <Druglikeness>
-13.646

>  <NP-class probability>
0.4

>  <SmilesFragFp 3>


>  <MS_READY_SMILES>
CNC(=O)C(C)SCCSP(=O)(OC)OC

>  <MS_READY_InChI>
InChI=1S/C8H18NO4PS2/c1-7(8(10)9-2)15-5-6-16-14(11,12-3)13-4/h7H,5-6H2,1-4H3,(H,9,10)/t7-/m0/s1

>  <QSAR_READY_SMILES>
CNC(=O)C(C)SCCSP(=O)(OC)OC

>  <QSAR_READY_InChI>
InChI=1S/C8H18NO4PS2/c1-7(8(10)9-2)15-5-6-16-14(11,12-3)13-4/h7H,5-6H2,1-4H3,(H,9,10)/t7-/m0/s1

>  <DTXSID>
DTXSID7042510

>  <DTXCID>
DTXCID5022510

>  <CASRN>
2275-23-2

>  <EXPOCAST_MEDIAN_EXPOSURE_PREDICTION_MG/KG-BW/DAY>
1.86E-07

>  <BIOCONCENTRATION_FACTOR_TEST_PRED>
2.60615

>  <BOILING_POINT_DEGC_TEST_PRED>
-

>  <48HR_DAPHNIA_LC50_MOL/L_TEST_PRED>
2.73E-07

>  <DENSITY_G/CM^3_TEST_PRED>
1.216

>  <DEVTOX_TEST_PRED>
-0.094

>  <96HR_FATHEAD_MINNOW_MOL/L_TEST_PRED>
3.50E-05

>  <FLASH_POINT_DEGC_TEST_PRED>
153.612

>  <MELTING_POINT_DEGC_TEST_PRED>
20.239

>  <AMES_MUTAGENICITY_TEST_PRED>
0.515

>  <ORAL_RAT_LD50_MOL/KG_TEST_PRED>
0.000135519

>  <SURFACE_TENSION_DYN/CM_TEST_PRED>
-

>  <THERMAL_CONDUCTIVITY_MW/(M*K)_TEST_PRED>
-

>  <TETRAHYMENA_PYRIFORMIS_IGC50_MOL/L_TEST_PRED>
-

>  <VISCOSITY_CP_CP_TEST_PRED>
-

>  <VAPOR_PRESSURE_MMHG_TEST_PRED>
6.73E-06

>  <WATER_SOLUBILITY_MOL/L_TEST_PRED>
0.092683

>  <ATMOSPHERIC_HYDROXYLATION_RATE_(AOH)_CM3/MOLECULE*SEC_OPERA_PRED>
1.84E-11

>  <BIOCONCENTRATION_FACTOR_OPERA_PRED>
1.14175

>  <BIODEGRADATION_HALF_LIFE_DAYS_DAYS_OPERA_PRED>
3.09733

>  <BOILING_POINT_DEGC_OPERA_PRED>
333.913

>  <HENRYS_LAW_ATM-M3/MOLE_OPERA_PRED>
1.01E-09

>  <OPERA_KM_DAYS_OPERA_PRED>
0.106817

>  <OCTANOL_AIR_PARTITION_COEFF_LOGKOA_OPERA_PRED>
11.0542

>  <SOIL_ADSORPTION_COEFFICIENT_KOC_L/KG_OPERA_PRED>
107.075

>  <OCTANOL_WATER_PARTITION_LOGP_OPERA_PRED>
1.02904

>  <MELTING_POINT_DEGC_OPERA_PRED>
42.9792

>  <VAPOR_PRESSURE_MMHG_OPERA_PRED>
1.14E-05

>  <WATER_SOLUBILITY_MOL/L_OPERA_PRED>
6.88006

>  <Shape Index>
0.6875

>  <Molecular Flexibility>
0.78523

>  <Molecular Complexity>
0.44158

>  <Electronegative Atoms>
8

>  <Stereo Centers>
1

>  <Rotatable Bonds>
8

>  <Rings Closures>
0

>  <Aromatic Rings>
0

>  <Aromatic Atoms>
0

>  <Amides>
1

>  <Amines>
0

>  <Aromatic Nitrogens>
0

>  <Shape Index 2>
0.6875

>  <Molecular Flexibility 2>
0.78523

>  <Molecular Complexity 2>
0.44158

>  <Non-C/H Atoms>
8

>  <Electronegative Atoms 2>
8

>  <Stereo Centers 2>
1

>  <Rotatable Bonds 2>
8

>  <Rings Closures 2>
0

>  <Aromatic Rings 2>
0

>  <Aromatic Atoms 2>
0

>  <sp3-Atoms>
12

>  <Amides 2>
1

>  <Amines 2>
0

>  <Aromatic Nitrogens 2>
0

>  <Basic Nitrogens>
0

$$$$
Benalaxyl
Actelion Java MolfileCreator 2.0

  0  0  0  0  0  0              0 V3000
M  V30 BEGIN CTAB
M  V30 COUNTS 24 25 0 0 0
M  V30 BEGIN ATOM
M  V30 1 O 0.0 0.0 0.0 0
M  V30 2 C -1.3085 0.7545 0.0 0
M  V30 3 O -2.6171 0.0235 0.0 0
M  V30 4 C -1.3203 2.2635 0.0 0 CFG=1
M  V30 5 C -2.6289 -1.4618 0.0 0
M  V30 6 N -2.6289 3.018 0.0 0
M  V30 7 C -0.0353 3.018 0.0 0
M  V30 8 C -2.6407 4.527 0.0 0
M  V30 9 C -3.9375 2.2871 0.0 0
M  V30 10 C -1.3557 5.2815 0.0 0
M  V30 11 C -3.9493 5.2815 0.0 0
M  V30 12 O -3.9493 0.8016 0.0 0
M  V30 13 C -5.2461 3.0416 0.0 0
M  V30 14 C -1.3675 6.7905 0.0 0
M  V30 15 C -0.0707 4.5388 0.0 0
M  V30 16 C -3.9611 6.7905 0.0 0
M  V30 17 C -5.2579 4.5506 0.0 0
M  V30 18 C -6.5547 2.3106 0.0 0
M  V30 19 C -2.6761 7.545 0.0 0
M  V30 20 C -7.8633 3.0651 0.0 0
M  V30 21 C -6.5665 0.8252 0.0 0
M  V30 22 C -9.1719 2.3342 0.0 0
M  V30 23 C -7.8751 0.0943 0.0 0
M  V30 24 C -9.1837 0.8488 0.0 0
M  V30 END ATOM
M  V30 BEGIN BOND
M  V30 1 2 1 2
M  V30 2 1 2 3
M  V30 3 1 2 4
M  V30 4 1 3 5
M  V30 5 1 4 6 CFG=1
M  V30 6 1 4 7
M  V30 7 1 6 8
M  V30 8 1 6 9
M  V30 9 2 8 10
M  V30 10 1 8 11
M  V30 11 2 9 12
M  V30 12 1 9 13
M  V30 13 1 10 14
M  V30 14 1 10 15
M  V30 15 2 11 16
M  V30 16 1 11 17
M  V30 17 1 13 18
M  V30 18 2 14 19
M  V30 19 2 18 20
M  V30 20 1 18 21
M  V30 21 1 20 22
M  V30 22 2 21 23
M  V30 23 2 22 24
M  V30 24 1 16 19
M  V30 25 1 23 24
M  V30 END BOND
M  V30 BEGIN COLLECTION
M  V30 MDLV30/STERAC1 ATOMS=(1 4)
M  V30 END COLLECTION
M  V30 END CTAB
M  END
>  <Molecule Name>
Benalaxyl

>  <Order (spectra)>
278

>  <NAME>
Benalaxyl

>  <Molecular Formula>
C20H23NO3

>  <Monoisotopic Mass>
325.167794

>  <SMILES>
COC(=O)C(C)N(C(=O)CC1=CC=CC=C1)C1=C(C)C=CC=C1C

>  <InChI>
InChI=1S/C20H23NO3/c1-14-9-8-10-15(2)19(14)21(16(3)20(23)24-4)18(22)13-17-11-6-5-7-12-17/h5-12,16H,13H2,1-4H3/t16-/m0/s1

>  <InChIKey>
CJPQIRJHIZUAQP-UHFFFAOYSA-N

>  <Kingdom>
Organic compounds

>  <Superclass>
Organic acids and derivatives

>  <Class>
Carboxylic acids and derivatives

>  <Subclass>
Amino acids, peptides, and analogues

>  <Parent Level 1>
Amino acids and derivatives

>  <Parent Level 2>
Alpha amino acids and derivatives

>  <Parent Level 3>
Alpha amino acid esters

>  <cLogP>
3.6596

>  <cLogS>
-4.038

>  <Druglikeness>
-1.8591

>  <NP-class probability>
0.23

>  <SmilesFragFp 3>


>  <MS_READY_SMILES>
COC(=O)C(C)N(C(=O)CC1=CC=CC=C1)C1=C(C)C=CC=C1C

>  <MS_READY_InChI>
InChI=1S/C20H23NO3/c1-14-9-8-10-15(2)19(14)21(16(3)20(23)24-4)18(22)13-17-11-6-5-7-12-17/h5-12,16H,13H2,1-4H3/t16-/m0/s1

>  <QSAR_READY_SMILES>
COC(=O)C(C)N(C(=O)CC1=CC=CC=C1)C1=C(C)C=CC=C1C

>  <QSAR_READY_InChI>
InChI=1S/C20H23NO3/c1-14-9-8-10-15(2)19(14)21(16(3)20(23)24-4)18(22)13-17-11-6-5-7-12-17/h5-12,16H,13H2,1-4H3/t16-/m0/s1

>  <DTXSID>
DTXSID3041619

>  <DTXCID>
DTXCID1021619

>  <CASRN>
71626-11-4

>  <EXPOCAST_MEDIAN_EXPOSURE_PREDICTION_MG/KG-BW/DAY>
1.82E-07

>  <BIOCONCENTRATION_FACTOR_TEST_PRED>
76.3836

>  <BOILING_POINT_DEGC_TEST_PRED>
402.798

>  <48HR_DAPHNIA_LC50_MOL/L_TEST_PRED>
1.59E-05

>  <DENSITY_G/CM^3_TEST_PRED>
1.1

>  <DEVTOX_TEST_PRED>
0.736

>  <96HR_FATHEAD_MINNOW_MOL/L_TEST_PRED>
3.67E-06

>  <FLASH_POINT_DEGC_TEST_PRED>
214.232

>  <MELTING_POINT_DEGC_TEST_PRED>
95.634

>  <AMES_MUTAGENICITY_TEST_PRED>
0.152

>  <ORAL_RAT_LD50_MOL/KG_TEST_PRED>
0.00331894

>  <SURFACE_TENSION_DYN/CM_TEST_PRED>
-

>  <THERMAL_CONDUCTIVITY_MW/(M*K)_TEST_PRED>
147.736

>  <TETRAHYMENA_PYRIFORMIS_IGC50_MOL/L_TEST_PRED>
2.38E-05

>  <VISCOSITY_CP_CP_TEST_PRED>
76.0326

>  <VAPOR_PRESSURE_MMHG_TEST_PRED>
3.42E-07

>  <WATER_SOLUBILITY_MOL/L_TEST_PRED>
5.06E-05

>  <ATMOSPHERIC_HYDROXYLATION_RATE_(AOH)_CM3/MOLECULE*SEC_OPERA_PRED>
2.10E-11

>  <BIOCONCENTRATION_FACTOR_OPERA_PRED>
59.9447

>  <BIODEGRADATION_HALF_LIFE_DAYS_DAYS_OPERA_PRED>
3.35688

>  <BOILING_POINT_DEGC_OPERA_PRED>
378.305

>  <HENRYS_LAW_ATM-M3/MOLE_OPERA_PRED>
1.30E-08

>  <OPERA_KM_DAYS_OPERA_PRED>
0.472165

>  <OCTANOL_AIR_PARTITION_COEFF_LOGKOA_OPERA_PRED>
11.526

>  <SOIL_ADSORPTION_COEFFICIENT_KOC_L/KG_OPERA_PRED>
3457.81

>  <OCTANOL_WATER_PARTITION_LOGP_OPERA_PRED>
3.4007

>  <MELTING_POINT_DEGC_OPERA_PRED>
79.0252

>  <VAPOR_PRESSURE_MMHG_OPERA_PRED>
9.87E-06

>  <WATER_SOLUBILITY_MOL/L_OPERA_PRED>
0.000103321

>  <Shape Index>
0.45833

>  <Molecular Flexibility>
0.58828

>  <Molecular Complexity>
0.78235

>  <Electronegative Atoms>
4

>  <Stereo Centers>
1

>  <Rotatable Bonds>
6

>  <Rings Closures>
2

>  <Aromatic Rings>
2

>  <Aromatic Atoms>
12

>  <Amides>
1

>  <Amines>
0

>  <Aromatic Nitrogens>
0

>  <Shape Index 2>
0.45833

>  <Molecular Flexibility 2>
0.58828

>  <Molecular Complexity 2>
0.78235

>  <Non-C/H Atoms>
4

>  <Electronegative Atoms 2>
4

>  <Stereo Centers 2>
1

>  <Rotatable Bonds 2>
6

>  <Rings Closures 2>
2

>  <Aromatic Rings 2>
2

>  <Aromatic Atoms 2>
12

>  <sp3-Atoms>
7

>  <Amides 2>
1

>  <Amines 2>
0

>  <Aromatic Nitrogens 2>
0

>  <Basic Nitrogens>
0

$$$$
Metalaxyl
Actelion Java MolfileCreator 2.0

  0  0  0  0  0  0              0 V3000
M  V30 BEGIN CTAB
M  V30 COUNTS 20 20 0 0 0
M  V30 BEGIN ATOM
M  V30 1 O 0.0 0.0 0.0 0
M  V30 2 C -1.3112 -0.7324 0.0 0
M  V30 3 O -2.6225 0.0354 0.0 0
M  V30 4 C -1.3231 -2.2209 0.0 0 CFG=1
M  V30 5 C -2.6343 1.5475 0.0 0
M  V30 6 N -2.6343 -2.9533 0.0 0
M  V30 7 C -0.0354 -2.9533 0.0 0
M  V30 8 C -2.6462 -4.4418 0.0 0
M  V30 9 C -3.9456 -2.1973 0.0 0
M  V30 10 C -3.9575 -5.1742 0.0 0
M  V30 11 C -1.3585 -5.1742 0.0 0
M  V30 12 O -3.9575 -0.6851 0.0 0
M  V30 13 C -5.2569 -2.9297 0.0 0
M  V30 14 C -3.9693 -6.6627 0.0 0
M  V30 15 C -5.2687 -4.4182 0.0 0
M  V30 16 C -1.3703 -6.6627 0.0 0
M  V30 17 C -0.0708 -4.4182 0.0 0
M  V30 18 O -6.5682 -2.1736 0.0 0
M  V30 19 C -2.6816 -7.407 0.0 0
M  V30 20 C -7.8795 -2.9061 0.0 0
M  V30 END ATOM
M  V30 BEGIN BOND
M  V30 1 2 1 2
M  V30 2 1 2 3
M  V30 3 1 2 4
M  V30 4 1 3 5
M  V30 5 1 4 6 CFG=3
M  V30 6 1 4 7
M  V30 7 1 6 8
M  V30 8 1 6 9
M  V30 9 2 8 10
M  V30 10 1 8 11
M  V30 11 2 9 12
M  V30 12 1 9 13
M  V30 13 1 10 14
M  V30 14 1 10 15
M  V30 15 2 11 16
M  V30 16 1 11 17
M  V30 17 1 13 18
M  V30 18 2 14 19
M  V30 19 1 18 20
M  V30 20 1 16 19
M  V30 END BOND
M  V30 BEGIN COLLECTION
M  V30 MDLV30/STERAC1 ATOMS=(1 4)
M  V30 END COLLECTION
M  V30 END CTAB
M  END
>  <Molecule Name>
Metalaxyl

>  <Order (spectra)>
290

>  <NAME>
Metalaxyl

>  <Molecular Formula>
C15H21NO4

>  <Monoisotopic Mass>
279.147059

>  <SMILES>
COCC(=O)N(C(C)C(=O)OC)C1=C(C)C=CC=C1C

>  <InChI>
InChI=1S/C15H21NO4/c1-10-7-6-8-11(2)14(10)16(13(17)9-19-4)12(3)15(18)20-5/h6-8,12H,9H2,1-5H3/t12-/m0/s1

>  <InChIKey>
ZQEIXNIJLIKNTD-UHFFFAOYSA-N

>  <Kingdom>
Organic compounds

>  <Superclass>
Organic acids and derivatives

>  <Class>
Carboxylic acids and derivatives

>  <Subclass>
Amino acids, peptides, and analogues

>  <Parent Level 1>
Amino acids and derivatives

>  <Parent Level 2>
Alpha amino acids and derivatives

>  <Parent Level 3>
Alpha amino acid esters

>  <cLogP>
1.7189

>  <cLogS>
-2.524

>  <Druglikeness>
-1.9687

>  <NP-class probability>
0.41

>  <SmilesFragFp 3>


>  <MS_READY_SMILES>
COCC(=O)N(C(C)C(=O)OC)C1=C(C)C=CC=C1C

>  <MS_READY_InChI>
InChI=1S/C15H21NO4/c1-10-7-6-8-11(2)14(10)16(13(17)9-19-4)12(3)15(18)20-5/h6-8,12H,9H2,1-5H3/t12-/m0/s1

>  <QSAR_READY_SMILES>
COCC(=O)N(C(C)C(=O)OC)C1=C(C)C=CC=C1C

>  <QSAR_READY_InChI>
InChI=1S/C15H21NO4/c1-10-7-6-8-11(2)14(10)16(13(17)9-19-4)12(3)15(18)20-5/h6-8,12H,9H2,1-5H3/t12-/m0/s1

>  <DTXSID>
DTXSID6024175

>  <DTXCID>
DTXCID704175

>  <CASRN>
57837-19-1

>  <EXPOCAST_MEDIAN_EXPOSURE_PREDICTION_MG/KG-BW/DAY>
2.79E-07

>  <BIOCONCENTRATION_FACTOR_TEST_PRED>
17.1396

>  <BOILING_POINT_DEGC_TEST_PRED>
344.018

>  <48HR_DAPHNIA_LC50_MOL/L_TEST_PRED>
4.76E-05

>  <DENSITY_G/CM^3_TEST_PRED>
1.063

>  <DEVTOX_TEST_PRED>
0.606

>  <96HR_FATHEAD_MINNOW_MOL/L_TEST_PRED>
3.00E-05

>  <FLASH_POINT_DEGC_TEST_PRED>
184.163

>  <MELTING_POINT_DEGC_TEST_PRED>
5.062

>  <AMES_MUTAGENICITY_TEST_PRED>
0.191

>  <ORAL_RAT_LD50_MOL/KG_TEST_PRED>
0.00905733

>  <SURFACE_TENSION_DYN/CM_TEST_PRED>
-

>  <THERMAL_CONDUCTIVITY_MW/(M*K)_TEST_PRED>
147.097

>  <TETRAHYMENA_PYRIFORMIS_IGC50_MOL/L_TEST_PRED>
0.000211836

>  <VISCOSITY_CP_CP_TEST_PRED>
41.3047

>  <VAPOR_PRESSURE_MMHG_TEST_PRED>
5.47E-06

>  <WATER_SOLUBILITY_MOL/L_TEST_PRED>
0.00233884

>  <ATMOSPHERIC_HYDROXYLATION_RATE_(AOH)_CM3/MOLECULE*SEC_OPERA_PRED>
2.16E-11

>  <BIOCONCENTRATION_FACTOR_OPERA_PRED>
8.25493

>  <BIODEGRADATION_HALF_LIFE_DAYS_DAYS_OPERA_PRED>
4.28575

>  <BOILING_POINT_DEGC_OPERA_PRED>
299.892

>  <HENRYS_LAW_ATM-M3/MOLE_OPERA_PRED>
3.92E-09

>  <OPERA_KM_DAYS_OPERA_PRED>
0.198614

>  <OCTANOL_AIR_PARTITION_COEFF_LOGKOA_OPERA_PRED>
9.83674

>  <SOIL_ADSORPTION_COEFFICIENT_KOC_L/KG_OPERA_PRED>
37.2169

>  <OCTANOL_WATER_PARTITION_LOGP_OPERA_PRED>
1.65024

>  <MELTING_POINT_DEGC_OPERA_PRED>
67.2974

>  <VAPOR_PRESSURE_MMHG_OPERA_PRED>
5.57E-06

>  <WATER_SOLUBILITY_MOL/L_OPERA_PRED>
0.043674

>  <Shape Index>
0.45

>  <Molecular Flexibility>
0.60823

>  <Molecular Complexity>
0.76455

>  <Electronegative Atoms>
5

>  <Stereo Centers>
1

>  <Rotatable Bonds>
6

>  <Rings Closures>
1

>  <Aromatic Rings>
1

>  <Aromatic Atoms>
6

>  <Amides>
1

>  <Amines>
0

>  <Aromatic Nitrogens>
0

>  <Shape Index 2>
0.45

>  <Molecular Flexibility 2>
0.60823

>  <Molecular Complexity 2>
0.76455

>  <Non-C/H Atoms>
5

>  <Electronegative Atoms 2>
5

>  <Stereo Centers 2>
1

>  <Rotatable Bonds 2>
6

>  <Rings Closures 2>
1

>  <Aromatic Rings 2>
1

>  <Aromatic Atoms 2>
6

>  <sp3-Atoms>
9

>  <Amides 2>
1

>  <Amines 2>
0

>  <Aromatic Nitrogens 2>
0

>  <Basic Nitrogens>
0

$$$$
Fenamidone
Actelion Java MolfileCreator 2.0

  0  0  0  0  0  0              0 V3000
M  V30 BEGIN CTAB
M  V30 COUNTS 22 24 0 0 0
M  V30 BEGIN ATOM
M  V30 1 S 0.0 0.0 0.0 0
M  V30 2 C 1.294 -0.7411 0.0 0
M  V30 3 C -1.3176 -0.7411 0.0 0
M  V30 4 N 1.4352 -2.2234 0.0 0
M  V30 5 N 2.6587 -0.1176 0.0 0
M  V30 6 C 2.894 -2.5293 0.0 0 CFG=2
M  V30 7 N 2.9646 1.3646 0.0 0
M  V30 8 C 3.6469 -1.2235 0.0 0
M  V30 9 C 3.494 -3.894 0.0 0
M  V30 10 C 1.9411 -3.6822 0.0 0
M  V30 11 C 1.8352 2.3764 0.0 0
M  V30 12 O 5.1293 -1.0588 0.0 0
M  V30 13 C 2.5999 -5.094 0.0 0
M  V30 14 C 4.9763 -4.0352 0.0 0
M  V30 15 C 2.1411 3.8587 0.0 0
M  V30 16 C 0.3999 1.9293 0.0 0
M  V30 17 C 3.1999 -6.4587 0.0 0
M  V30 18 C 5.5763 -5.3999 0.0 0
M  V30 19 C 1.0117 4.8704 0.0 0
M  V30 20 C -0.7293 2.9411 0.0 0
M  V30 21 C 4.6822 -6.5998 0.0 0
M  V30 22 C -0.4235 4.4234 0.0 0
M  V30 END ATOM
M  V30 BEGIN BOND
M  V30 1 1 1 2
M  V30 2 1 1 3
M  V30 3 2 2 4
M  V30 4 1 2 5
M  V30 5 1 4 6
M  V30 6 1 5 7
M  V30 7 1 5 8
M  V30 8 1 6 9
M  V30 9 1 6 10 CFG=1
M  V30 10 1 7 11
M  V30 11 2 8 12
M  V30 12 2 9 13
M  V30 13 1 9 14
M  V30 14 2 11 15
M  V30 15 1 11 16
M  V30 16 1 13 17
M  V30 17 2 14 18
M  V30 18 1 15 19
M  V30 19 2 16 20
M  V30 20 2 17 21
M  V30 21 2 19 22
M  V30 22 1 6 8
M  V30 23 1 18 21
M  V30 24 1 20 22
M  V30 END BOND
M  V30 BEGIN COLLECTION
M  V30 MDLV30/STEABS ATOMS=(1 6)
M  V30 END COLLECTION
M  V30 END CTAB
M  END
>  <Molecule Name>
Fenamidone

>  <Order (spectra)>
317

>  <NAME>
Fenamidone

>  <Molecular Formula>
C17H17N3OS

>  <Monoisotopic Mass>
311.109232

>  <SMILES>
CSC1=N[C@](C)(C(=O)N1NC1=CC=CC=C1)C1=CC=CC=C1

>  <InChI>
InChI=1S/C17H17N3OS/c1-17(13-9-5-3-6-10-13)15(21)20(16(18-17)22-2)19-14-11-7-4-8-12-14/h3-12,19H,1-2H3/t17-/m0/s1

>  <InChIKey>
LMVPQMGRYSRMIW-KRWDZBQOSA-N

>  <Kingdom>
Organic compounds

>  <Superclass>
Organic acids and derivatives

>  <Class>
Carboxylic acids and derivatives

>  <Subclass>
Amino acids, peptides, and analogues

>  <Parent Level 1>
Amino acids and derivatives

>  <Parent Level 2>
Alpha amino acids and derivatives

>  <Parent Level 3>


>  <cLogP>
3.3167

>  <cLogS>
-3.563

>  <Druglikeness>
4.3102

>  <NP-class probability>
0.01

>  <SmilesFragFp 3>


>  <MS_READY_SMILES>
CSC1=NC(C)(C(=O)N1NC1=CC=CC=C1)C1=CC=CC=C1

>  <MS_READY_InChI>
InChI=1S/C17H17N3OS/c1-17(13-9-5-3-6-10-13)15(21)20(16(18-17)22-2)19-14-11-7-4-8-12-14/h3-12,19H,1-2H3/t17-/m1/s1

>  <QSAR_READY_SMILES>
CSC1=NC(C)(C(=O)N1NC1=CC=CC=C1)C1=CC=CC=C1

>  <QSAR_READY_InChI>
InChI=1S/C17H17N3OS/c1-17(13-9-5-3-6-10-13)15(21)20(16(18-17)22-2)19-14-11-7-4-8-12-14/h3-12,19H,1-2H3/t17-/m1/s1

>  <DTXSID>
DTXSID2034590

>  <DTXCID>
DTXCID0014590

>  <CASRN>
161326-34-7

>  <EXPOCAST_MEDIAN_EXPOSURE_PREDICTION_MG/KG-BW/DAY>
3.33E-07

>  <BIOCONCENTRATION_FACTOR_TEST_PRED>
30.903

>  <BOILING_POINT_DEGC_TEST_PRED>
-

>  <48HR_DAPHNIA_LC50_MOL/L_TEST_PRED>
7.38E-06

>  <DENSITY_G/CM^3_TEST_PRED>
1.316

>  <DEVTOX_TEST_PRED>
0.105

>  <96HR_FATHEAD_MINNOW_MOL/L_TEST_PRED>
-

>  <FLASH_POINT_DEGC_TEST_PRED>
240.408

>  <MELTING_POINT_DEGC_TEST_PRED>
143.784

>  <AMES_MUTAGENICITY_TEST_PRED>
0.588

>  <ORAL_RAT_LD50_MOL/KG_TEST_PRED>
-

>  <SURFACE_TENSION_DYN/CM_TEST_PRED>
-

>  <THERMAL_CONDUCTIVITY_MW/(M*K)_TEST_PRED>
-

>  <TETRAHYMENA_PYRIFORMIS_IGC50_MOL/L_TEST_PRED>
-

>  <VISCOSITY_CP_CP_TEST_PRED>
-

>  <VAPOR_PRESSURE_MMHG_TEST_PRED>
2.07E-08

>  <WATER_SOLUBILITY_MOL/L_TEST_PRED>
2.23E-05

>  <ATMOSPHERIC_HYDROXYLATION_RATE_(AOH)_CM3/MOLECULE*SEC_OPERA_PRED>
1.38E-11

>  <BIOCONCENTRATION_FACTOR_OPERA_PRED>
79.2951

>  <BIODEGRADATION_HALF_LIFE_DAYS_DAYS_OPERA_PRED>
8.38196

>  <BOILING_POINT_DEGC_OPERA_PRED>
358.987

>  <HENRYS_LAW_ATM-M3/MOLE_OPERA_PRED>
7.55E-10

>  <OPERA_KM_DAYS_OPERA_PRED>
1.21674

>  <OCTANOL_AIR_PARTITION_COEFF_LOGKOA_OPERA_PRED>
10.7603

>  <SOIL_ADSORPTION_COEFFICIENT_KOC_L/KG_OPERA_PRED>
2162.4

>  <OCTANOL_WATER_PARTITION_LOGP_OPERA_PRED>
2.74697

>  <MELTING_POINT_DEGC_OPERA_PRED>
192.363

>  <VAPOR_PRESSURE_MMHG_OPERA_PRED>
6.16E-07

>  <WATER_SOLUBILITY_MOL/L_OPERA_PRED>
2.50E-05

>  <Shape Index>
0.54545

>  <Molecular Flexibility>
0.39619

>  <Molecular Complexity>
0.82714

>  <Electronegative Atoms>
5

>  <Stereo Centers>
1

>  <Rotatable Bonds>
4

>  <Rings Closures>
3

>  <Aromatic Rings>
2

>  <Aromatic Atoms>
12

>  <Amides>
0

>  <Amines>
0

>  <Aromatic Nitrogens>
0

>  <Shape Index 2>
0.54545

>  <Molecular Flexibility 2>
0.39619

>  <Molecular Complexity 2>
0.82714

>  <Non-C/H Atoms>
5

>  <Electronegative Atoms 2>
5

>  <Stereo Centers 2>
1

>  <Rotatable Bonds 2>
4

>  <Rings Closures 2>
3

>  <Aromatic Rings 2>
2

>  <Aromatic Atoms 2>
12

>  <sp3-Atoms>
4

>  <Amides 2>
0

>  <Amines 2>
0

>  <Aromatic Nitrogens 2>
0

>  <Basic Nitrogens>
0

$$$$
alpha-Amylcinnamaldehyde
Actelion Java MolfileCreator 2.0

  0  0  0  0  0  0              0 V3000
M  V30 BEGIN CTAB
M  V30 COUNTS 15 15 0 0 0
M  V30 BEGIN ATOM
M  V30 1 O 0.0 0.0 0.0 0
M  V30 2 C -1.3017 -0.7388 0.0 0
M  V30 3 C -2.6034 0.0117 0.0 0
M  V30 4 C -2.6152 1.5128 0.0 0
M  V30 5 C -3.9052 -0.7271 0.0 0
M  V30 6 C -3.9169 2.2633 0.0 0
M  V30 7 C -5.2069 0.0234 0.0 0
M  V30 8 C -3.9286 3.7645 0.0 0
M  V30 9 C -5.2187 1.5245 0.0 0
M  V30 10 C -6.5087 -0.7153 0.0 0
M  V30 11 C -5.2304 4.515 0.0 0
M  V30 12 C -6.5204 2.2751 0.0 0
M  V30 13 C -7.8104 0.0351 0.0 0
M  V30 14 C -6.5321 3.7762 0.0 0
M  V30 15 C -9.1122 -0.7036 0.0 0
M  V30 END ATOM
M  V30 BEGIN BOND
M  V30 1 2 1 2
M  V30 2 1 2 3
M  V30 3 2 3 4 CFG=2
M  V30 4 1 3 5
M  V30 5 1 4 6
M  V30 6 1 5 7
M  V30 7 2 6 8
M  V30 8 1 6 9
M  V30 9 1 7 10
M  V30 10 1 8 11
M  V30 11 2 9 12
M  V30 12 1 10 13
M  V30 13 2 11 14
M  V30 14 1 13 15
M  V30 15 1 12 14
M  V30 END BOND
M  V30 END CTAB
M  END
>  <Molecule Name>
alpha-Amylcinnamaldehyde

>  <Order (spectra)>
126

>  <NAME>
alpha-Amylcinnamaldehyde

>  <Molecular Formula>
C14H18O

>  <Monoisotopic Mass>
202.135765

>  <SMILES>
CCCCCC(C=O)=CC1=CC=CC=C1

>  <InChI>
InChI=1S/C14H18O/c1-2-3-5-10-14(12-15)11-13-8-6-4-7-9-13/h4,6-9,11-12H,2-3,5,10H2,1H3

>  <InChIKey>
HMKKIXGYKWDQSV-UHFFFAOYSA-N

>  <Kingdom>
Organic compounds

>  <Superclass>
Phenylpropanoids and polyketides

>  <Class>
Cinnamaldehydes

>  <Subclass>


>  <Parent Level 1>
Cinnamaldehydes

>  <Parent Level 2>


>  <Parent Level 3>


>  <cLogP>
4.0352

>  <cLogS>
-3.436

>  <Druglikeness>
-13.793

>  <NP-class probability>
0.95

>  <SmilesFragFp 3>


>  <MS_READY_SMILES>
CCCCCC(C=O)=CC1=CC=CC=C1

>  <MS_READY_InChI>
InChI=1S/C14H18O/c1-2-3-5-10-14(12-15)11-13-8-6-4-7-9-13/h4,6-9,11-12H,2-3,5,10H2,1H3

>  <QSAR_READY_SMILES>
CCCCCC(C=O)=CC1=CC=CC=C1

>  <QSAR_READY_InChI>
InChI=1S/C14H18O/c1-2-3-5-10-14(12-15)11-13-8-6-4-7-9-13/h4,6-9,11-12H,2-3,5,10H2,1H3

>  <DTXSID>
DTXSID8029157

>  <DTXCID>
DTXCID409157

>  <CASRN>
122-40-7

>  <EXPOCAST_MEDIAN_EXPOSURE_PREDICTION_MG/KG-BW/DAY>
2.54E-06

>  <BIOCONCENTRATION_FACTOR_TEST_PRED>
-

>  <BOILING_POINT_DEGC_TEST_PRED>
306.336

>  <48HR_DAPHNIA_LC50_MOL/L_TEST_PRED>
6.95E-06

>  <DENSITY_G/CM^3_TEST_PRED>
0.971

>  <DEVTOX_TEST_PRED>
0.487

>  <96HR_FATHEAD_MINNOW_MOL/L_TEST_PRED>
5.40E-07

>  <FLASH_POINT_DEGC_TEST_PRED>
128.398

>  <MELTING_POINT_DEGC_TEST_PRED>
33.367

>  <AMES_MUTAGENICITY_TEST_PRED>
0.066

>  <ORAL_RAT_LD50_MOL/KG_TEST_PRED>
0.018239

>  <SURFACE_TENSION_DYN/CM_TEST_PRED>
35.725

>  <THERMAL_CONDUCTIVITY_MW/(M*K)_TEST_PRED>
-

>  <TETRAHYMENA_PYRIFORMIS_IGC50_MOL/L_TEST_PRED>
0.000011246

>  <VISCOSITY_CP_CP_TEST_PRED>
5.08159

>  <VAPOR_PRESSURE_MMHG_TEST_PRED>
0.00149279

>  <WATER_SOLUBILITY_MOL/L_TEST_PRED>
0.000286418

>  <ATMOSPHERIC_HYDROXYLATION_RATE_(AOH)_CM3/MOLECULE*SEC_OPERA_PRED>
3.52E-11

>  <BIOCONCENTRATION_FACTOR_OPERA_PRED>
540.918

>  <BIODEGRADATION_HALF_LIFE_DAYS_DAYS_OPERA_PRED>
3.5284

>  <BOILING_POINT_DEGC_OPERA_PRED>
276.477

>  <HENRYS_LAW_ATM-M3/MOLE_OPERA_PRED>
2.03E-05

>  <OPERA_KM_DAYS_OPERA_PRED>
0.605863

>  <OCTANOL_AIR_PARTITION_COEFF_LOGKOA_OPERA_PRED>
7.41856

>  <SOIL_ADSORPTION_COEFFICIENT_KOC_L/KG_OPERA_PRED>
359.358

>  <OCTANOL_WATER_PARTITION_LOGP_OPERA_PRED>
3.98997

>  <MELTING_POINT_DEGC_OPERA_PRED>
79.1152

>  <VAPOR_PRESSURE_MMHG_OPERA_PRED>
0.00476499

>  <WATER_SOLUBILITY_MOL/L_OPERA_PRED>
0.000810369

>  <Shape Index>
0.73333

>  <Molecular Flexibility>
0.52889

>  <Molecular Complexity>
0.49057

>  <Electronegative Atoms>
1

>  <Stereo Centers>
0

>  <Rotatable Bonds>
6

>  <Rings Closures>
1

>  <Aromatic Rings>
1

>  <Aromatic Atoms>
6

>  <Amides>
0

>  <Amines>
0

>  <Aromatic Nitrogens>
0

>  <Shape Index 2>
0.73333

>  <Molecular Flexibility 2>
0.52889

>  <Molecular Complexity 2>
0.49057

>  <Non-C/H Atoms>
1

>  <Electronegative Atoms 2>
1

>  <Stereo Centers 2>
0

>  <Rotatable Bonds 2>
6

>  <Rings Closures 2>
1

>  <Aromatic Rings 2>
1

>  <Aromatic Atoms 2>
6

>  <sp3-Atoms>
5

>  <Amides 2>
0

>  <Amines 2>
0

>  <Aromatic Nitrogens 2>
0

>  <Basic Nitrogens>
0

$$$$
trans-Cinnamaldehyde
Actelion Java MolfileCreator 2.0

  0  0  0  0  0  0              0 V3000
M  V30 BEGIN CTAB
M  V30 COUNTS 10 10 0 0 0
M  V30 BEGIN ATOM
M  V30 1 O 0.0 0.0 0.0 0
M  V30 2 C -1.3078 0.754 0.0 0
M  V30 3 C -2.6156 0.0235 0.0 0
M  V30 4 C -3.9235 0.7776 0.0 0
M  V30 5 C -5.2313 0.0471 0.0 0
M  V30 6 C -6.5392 0.8012 0.0 0
M  V30 7 C -5.2431 -1.4374 0.0 0
M  V30 8 C -7.847 0.0706 0.0 0
M  V30 9 C -6.5509 -2.1679 0.0 0
M  V30 10 C -7.8588 -1.4138 0.0 0
M  V30 END ATOM
M  V30 BEGIN BOND
M  V30 1 2 1 2
M  V30 2 1 2 3
M  V30 3 2 3 4
M  V30 4 1 4 5
M  V30 5 2 5 6
M  V30 6 1 5 7
M  V30 7 1 6 8
M  V30 8 2 7 9
M  V30 9 2 8 10
M  V30 10 1 9 10
M  V30 END BOND
M  V30 END CTAB
M  END
>  <Molecule Name>
trans-Cinnamaldehyde

>  <Order (spectra)>
127

>  <NAME>
trans-Cinnamaldehyde

>  <Molecular Formula>
C9H8O

>  <Monoisotopic Mass>
132.057515

>  <SMILES>
O=C\C=C\C1=CC=CC=C1

>  <InChI>
InChI=1S/C9H8O/c10-8-4-7-9-5-2-1-3-6-9/h1-8H

>  <InChIKey>
KJPRLNWUNMBNBZ-QPJJXVBHSA-N

>  <Kingdom>
Organic compounds

>  <Superclass>
Phenylpropanoids and polyketides

>  <Class>
Cinnamaldehydes

>  <Subclass>


>  <Parent Level 1>
Cinnamaldehydes

>  <Parent Level 2>


>  <Parent Level 3>


>  <cLogP>
1.6112

>  <cLogS>
-2.232

>  <Druglikeness>
-5.3892

>  <NP-class probability>
-

>  <SmilesFragFp 3>


>  <MS_READY_SMILES>
O=CC=CC1=CC=CC=C1

>  <MS_READY_InChI>
InChI=1S/C9H8O/c10-8-4-7-9-5-2-1-3-6-9/h1-8H

>  <QSAR_READY_SMILES>
O=CC=CC1=CC=CC=C1

>  <QSAR_READY_InChI>
InChI=1S/C9H8O/c10-8-4-7-9-5-2-1-3-6-9/h1-8H

>  <DTXSID>
DTXSID6024834

>  <DTXCID>
DTXCID504834

>  <CASRN>
14371-10-9

>  <EXPOCAST_MEDIAN_EXPOSURE_PREDICTION_MG/KG-BW/DAY>
1.80E-05

>  <BIOCONCENTRATION_FACTOR_TEST_PRED>
-

>  <BOILING_POINT_DEGC_TEST_PRED>
230.69

>  <48HR_DAPHNIA_LC50_MOL/L_TEST_PRED>
0.000117761

>  <DENSITY_G/CM^3_TEST_PRED>
1.03

>  <DEVTOX_TEST_PRED>
0.567

>  <96HR_FATHEAD_MINNOW_MOL/L_TEST_PRED>
1.31E-05

>  <FLASH_POINT_DEGC_TEST_PRED>
95.965

>  <MELTING_POINT_DEGC_TEST_PRED>
47.377

>  <AMES_MUTAGENICITY_TEST_PRED>
0.594

>  <ORAL_RAT_LD50_MOL/KG_TEST_PRED>
0.0179061

>  <SURFACE_TENSION_DYN/CM_TEST_PRED>
35.034

>  <THERMAL_CONDUCTIVITY_MW/(M*K)_TEST_PRED>
-

>  <TETRAHYMENA_PYRIFORMIS_IGC50_MOL/L_TEST_PRED>
0.000239332

>  <VISCOSITY_CP_CP_TEST_PRED>
1.33352

>  <VAPOR_PRESSURE_MMHG_TEST_PRED>
0.0260016

>  <WATER_SOLUBILITY_MOL/L_TEST_PRED>
0.00792501

>  <ATMOSPHERIC_HYDROXYLATION_RATE_(AOH)_CM3/MOLECULE*SEC_OPERA_PRED>
4.80E-11

>  <BIOCONCENTRATION_FACTOR_OPERA_PRED>
8.70758

>  <BIODEGRADATION_HALF_LIFE_DAYS_DAYS_OPERA_PRED>
4.81723

>  <BOILING_POINT_DEGC_OPERA_PRED>
245.978

>  <HENRYS_LAW_ATM-M3/MOLE_OPERA_PRED>
6.57E-05

>  <OPERA_KM_DAYS_OPERA_PRED>
0.513347

>  <OCTANOL_AIR_PARTITION_COEFF_LOGKOA_OPERA_PRED>
4.82822

>  <SOIL_ADSORPTION_COEFFICIENT_KOC_L/KG_OPERA_PRED>
66.9829

>  <OCTANOL_WATER_PARTITION_LOGP_OPERA_PRED>
1.89921

>  <MELTING_POINT_DEGC_OPERA_PRED>
-6.93975

>  <VAPOR_PRESSURE_MMHG_OPERA_PRED>
0.0290401

>  <WATER_SOLUBILITY_MOL/L_OPERA_PRED>
0.0107571

>  <Shape Index>
0.8

>  <Molecular Flexibility>
0.34148

>  <Molecular Complexity>
0.49698

>  <Electronegative Atoms>
1

>  <Stereo Centers>
0

>  <Rotatable Bonds>
2

>  <Rings Closures>
1

>  <Aromatic Rings>
1

>  <Aromatic Atoms>
6

>  <Amides>
0

>  <Amines>
0

>  <Aromatic Nitrogens>
0

>  <Shape Index 2>
0.8

>  <Molecular Flexibility 2>
0.34148

>  <Molecular Complexity 2>
0.49698

>  <Non-C/H Atoms>
1

>  <Electronegative Atoms 2>
1

>  <Stereo Centers 2>
0

>  <Rotatable Bonds 2>
2

>  <Rings Closures 2>
1

>  <Aromatic Rings 2>
1

>  <Aromatic Atoms 2>
6

>  <sp3-Atoms>
0

>  <Amides 2>
0

>  <Amines 2>
0

>  <Aromatic Nitrogens 2>
0

>  <Basic Nitrogens>
0

$$$$
alpha-Hexylcinnamaldehyde
Actelion Java MolfileCreator 2.0

  0  0  0  0  0  0              0 V3000
M  V30 BEGIN CTAB
M  V30 COUNTS 16 16 0 0 0
M  V30 BEGIN ATOM
M  V30 1 O 0.0 0.0 0.0 0
M  V30 2 C -1.3079 0.7541 0.0 0
M  V30 3 C -2.6158 0.0235 0.0 0
M  V30 4 C -2.6276 -1.4611 0.0 0
M  V30 5 C -3.9238 0.7776 0.0 0
M  V30 6 C -3.9356 -2.1916 0.0 0
M  V30 7 C -5.2317 0.0471 0.0 0
M  V30 8 C -3.9474 -3.6763 0.0 0
M  V30 9 C -5.2435 -1.4375 0.0 0
M  V30 10 C -6.5397 0.8012 0.0 0
M  V30 11 C -5.2553 -4.4069 0.0 0
M  V30 12 C -6.5515 -2.1681 0.0 0
M  V30 13 C -7.8476 0.0706 0.0 0
M  V30 14 C -6.5633 -3.6528 0.0 0
M  V30 15 C -9.1556 0.8248 0.0 0
M  V30 16 C -10.4635 0.0942 0.0 0
M  V30 END ATOM
M  V30 BEGIN BOND
M  V30 1 2 1 2
M  V30 2 1 2 3
M  V30 3 2 3 4
M  V30 4 1 3 5
M  V30 5 1 4 6
M  V30 6 1 5 7
M  V30 7 2 6 8
M  V30 8 1 6 9
M  V30 9 1 7 10
M  V30 10 1 8 11
M  V30 11 2 9 12
M  V30 12 1 10 13
M  V30 13 2 11 14
M  V30 14 1 13 15
M  V30 15 1 15 16
M  V30 16 1 12 14
M  V30 END BOND
M  V30 END CTAB
M  END
>  <Molecule Name>
alpha-Hexylcinnamaldehyde

>  <Order (spectra)>
130

>  <NAME>
alpha-Hexylcinnamaldehyde

>  <Molecular Formula>
C15H20O

>  <Monoisotopic Mass>
216.151415

>  <SMILES>
CCCCCC/C(=C\C1=CC=CC=C1)/C=O

>  <InChI>
InChI=1S/C15H20O/c1-2-3-4-6-11-15(13-16)12-14-9-7-5-8-10-14/h5,7-10,12-13H,2-4,6,11H2,1H3

>  <InChIKey>
GUUHFMWKWLOQMM-NTCAYCPXSA-N

>  <Kingdom>
Organic compounds

>  <Superclass>
Phenylpropanoids and polyketides

>  <Class>
Cinnamaldehydes

>  <Subclass>


>  <Parent Level 1>
Cinnamaldehydes

>  <Parent Level 2>


>  <Parent Level 3>


>  <cLogP>
4.4896

>  <cLogS>
-3.706

>  <Druglikeness>
-18.933

>  <NP-class probability>
0.98

>  <SmilesFragFp 3>


>  <MS_READY_SMILES>
-

>  <MS_READY_InChI>


>  <QSAR_READY_SMILES>
-

>  <QSAR_READY_InChI>


>  <DTXSID>
-

>  <DTXCID>
-

>  <CASRN>
-

>  <EXPOCAST_MEDIAN_EXPOSURE_PREDICTION_MG/KG-BW/DAY>
-

>  <BIOCONCENTRATION_FACTOR_TEST_PRED>
-

>  <BOILING_POINT_DEGC_TEST_PRED>
-

>  <48HR_DAPHNIA_LC50_MOL/L_TEST_PRED>
-

>  <DENSITY_G/CM^3_TEST_PRED>
-

>  <DEVTOX_TEST_PRED>
-

>  <96HR_FATHEAD_MINNOW_MOL/L_TEST_PRED>
-

>  <FLASH_POINT_DEGC_TEST_PRED>
-

>  <MELTING_POINT_DEGC_TEST_PRED>
-

>  <AMES_MUTAGENICITY_TEST_PRED>
-

>  <ORAL_RAT_LD50_MOL/KG_TEST_PRED>
-

>  <SURFACE_TENSION_DYN/CM_TEST_PRED>
-

>  <THERMAL_CONDUCTIVITY_MW/(M*K)_TEST_PRED>
-

>  <TETRAHYMENA_PYRIFORMIS_IGC50_MOL/L_TEST_PRED>
-

>  <VISCOSITY_CP_CP_TEST_PRED>
-

>  <VAPOR_PRESSURE_MMHG_TEST_PRED>
-

>  <WATER_SOLUBILITY_MOL/L_TEST_PRED>
-

>  <ATMOSPHERIC_HYDROXYLATION_RATE_(AOH)_CM3/MOLECULE*SEC_OPERA_PRED>
-

>  <BIOCONCENTRATION_FACTOR_OPERA_PRED>
-

>  <BIODEGRADATION_HALF_LIFE_DAYS_DAYS_OPERA_PRED>
-

>  <BOILING_POINT_DEGC_OPERA_PRED>
-

>  <HENRYS_LAW_ATM-M3/MOLE_OPERA_PRED>
-

>  <OPERA_KM_DAYS_OPERA_PRED>
-

>  <OCTANOL_AIR_PARTITION_COEFF_LOGKOA_OPERA_PRED>
-

>  <SOIL_ADSORPTION_COEFFICIENT_KOC_L/KG_OPERA_PRED>
-

>  <OCTANOL_WATER_PARTITION_LOGP_OPERA_PRED>
-

>  <MELTING_POINT_DEGC_OPERA_PRED>
-

>  <VAPOR_PRESSURE_MMHG_OPERA_PRED>
-

>  <WATER_SOLUBILITY_MOL/L_OPERA_PRED>
-

>  <Shape Index>
0.75

>  <Molecular Flexibility>
0.52466

>  <Molecular Complexity>
0.4995

>  <Electronegative Atoms>
1

>  <Stereo Centers>
0

>  <Rotatable Bonds>
7

>  <Rings Closures>
1

>  <Aromatic Rings>
1

>  <Aromatic Atoms>
6

>  <Amides>
0

>  <Amines>
0

>  <Aromatic Nitrogens>
0

>  <Shape Index 2>
0.75

>  <Molecular Flexibility 2>
0.52466

>  <Molecular Complexity 2>
0.4995

>  <Non-C/H Atoms>
1

>  <Electronegative Atoms 2>
1

>  <Stereo Centers 2>
0

>  <Rotatable Bonds 2>
7

>  <Rings Closures 2>
1

>  <Aromatic Rings 2>
1

>  <Aromatic Atoms 2>
6

>  <sp3-Atoms>
6

>  <Amides 2>
0

>  <Amines 2>
0

>  <Aromatic Nitrogens 2>
0

>  <Basic Nitrogens>
0

$$$$
Benzyl cinnamate
Actelion Java MolfileCreator 2.0

  0  0  0  0  0  0              0 V3000
M  V30 BEGIN CTAB
M  V30 COUNTS 18 19 0 0 0
M  V30 BEGIN ATOM
M  V30 1 O 0.0 0.0 0.0 0
M  V30 2 C -0.0118 -1.4914 0.0 0
M  V30 3 O 1.2783 -2.2371 0.0 0
M  V30 4 C -1.3257 -2.2371 0.0 0
M  V30 5 C 2.5685 -1.4796 0.0 0
M  V30 6 C -2.6396 -1.4796 0.0 0
M  V30 7 C 3.8588 -2.2253 0.0 0
M  V30 8 C -3.9535 -2.2253 0.0 0
M  V30 9 C 3.8469 -3.7167 0.0 0
M  V30 10 C 5.149 -1.4677 0.0 0
M  V30 11 C -5.2673 -1.4677 0.0 0
M  V30 12 C -3.9653 -3.7167 0.0 0
M  V30 13 C 5.1371 -4.4624 0.0 0
M  V30 14 C 6.4392 -2.2134 0.0 0
M  V30 15 C -6.5812 -2.2016 0.0 0
M  V30 16 C -5.2792 -4.4624 0.0 0
M  V30 17 C 6.4274 -3.7049 0.0 0
M  V30 18 C -6.5931 -3.693 0.0 0
M  V30 END ATOM
M  V30 BEGIN BOND
M  V30 1 2 1 2
M  V30 2 1 2 3
M  V30 3 1 2 4
M  V30 4 1 3 5
M  V30 5 2 4 6 CFG=2
M  V30 6 1 5 7
M  V30 7 1 6 8
M  V30 8 2 7 9
M  V30 9 1 7 10
M  V30 10 2 8 11
M  V30 11 1 8 12
M  V30 12 1 9 13
M  V30 13 2 10 14
M  V30 14 1 11 15
M  V30 15 2 12 16
M  V30 16 2 13 17
M  V30 17 2 15 18
M  V30 18 1 14 17
M  V30 19 1 16 18
M  V30 END BOND
M  V30 END CTAB
M  END
>  <Molecule Name>
Benzyl cinnamate

>  <Order (spectra)>
141

>  <NAME>
Benzyl cinnamate

>  <Molecular Formula>
C16H14O2

>  <Monoisotopic Mass>
238.09938

>  <SMILES>
O=C(OCC1=CC=CC=C1)C=CC1=CC=CC=C1

>  <InChI>
InChI=1S/C16H14O2/c17-16(12-11-14-7-3-1-4-8-14)18-13-15-9-5-2-6-10-15/h1-12H,13H2

>  <InChIKey>
NGHOLYJTSCBCGC-UHFFFAOYSA-N

>  <Kingdom>
Organic compounds

>  <Superclass>
Phenylpropanoids and polyketides

>  <Class>
Cinnamic acids and derivatives

>  <Subclass>
Cinnamic acid esters

>  <Parent Level 1>
Cinnamic acid esters

>  <Parent Level 2>


>  <Parent Level 3>


>  <cLogP>
3.3199

>  <cLogS>
-3.45

>  <Druglikeness>
-3.2032

>  <NP-class probability>
1

>  <SmilesFragFp 3>


>  <MS_READY_SMILES>
O=C(OCC1=CC=CC=C1)C=CC1=CC=CC=C1

>  <MS_READY_InChI>
InChI=1S/C16H14O2/c17-16(12-11-14-7-3-1-4-8-14)18-13-15-9-5-2-6-10-15/h1-12H,13H2

>  <QSAR_READY_SMILES>
O=C(OCC1=CC=CC=C1)C=CC1=CC=CC=C1

>  <QSAR_READY_InChI>
InChI=1S/C16H14O2/c17-16(12-11-14-7-3-1-4-8-14)18-13-15-9-5-2-6-10-15/h1-12H,13H2

>  <DTXSID>
DTXSID3041663

>  <DTXCID>
DTXCID1021663

>  <CASRN>
103-41-3

>  <EXPOCAST_MEDIAN_EXPOSURE_PREDICTION_MG/KG-BW/DAY>
2.28E-06

>  <BIOCONCENTRATION_FACTOR_TEST_PRED>
-

>  <BOILING_POINT_DEGC_TEST_PRED>
352.898

>  <48HR_DAPHNIA_LC50_MOL/L_TEST_PRED>
4.28E-05

>  <DENSITY_G/CM^3_TEST_PRED>
1.106

>  <DEVTOX_TEST_PRED>
0.439

>  <96HR_FATHEAD_MINNOW_MOL/L_TEST_PRED>
8.43E-07

>  <FLASH_POINT_DEGC_TEST_PRED>
220.45

>  <MELTING_POINT_DEGC_TEST_PRED>
45.355

>  <AMES_MUTAGENICITY_TEST_PRED>
-0.052

>  <ORAL_RAT_LD50_MOL/KG_TEST_PRED>
0.0223872

>  <SURFACE_TENSION_DYN/CM_TEST_PRED>
41.413

>  <THERMAL_CONDUCTIVITY_MW/(M*K)_TEST_PRED>
-

>  <TETRAHYMENA_PYRIFORMIS_IGC50_MOL/L_TEST_PRED>
2.24E-05

>  <VISCOSITY_CP_CP_TEST_PRED>
-

>  <VAPOR_PRESSURE_MMHG_TEST_PRED>
0.000069024

>  <WATER_SOLUBILITY_MOL/L_TEST_PRED>
0.000400867

>  <ATMOSPHERIC_HYDROXYLATION_RATE_(AOH)_CM3/MOLECULE*SEC_OPERA_PRED>
3.74E-11

>  <BIOCONCENTRATION_FACTOR_OPERA_PRED>
116.301

>  <BIODEGRADATION_HALF_LIFE_DAYS_DAYS_OPERA_PRED>
3.72639

>  <BOILING_POINT_DEGC_OPERA_PRED>
350.01

>  <HENRYS_LAW_ATM-M3/MOLE_OPERA_PRED>
1.83E-08

>  <OPERA_KM_DAYS_OPERA_PRED>
0.399423

>  <OCTANOL_AIR_PARTITION_COEFF_LOGKOA_OPERA_PRED>
8.20818

>  <SOIL_ADSORPTION_COEFFICIENT_KOC_L/KG_OPERA_PRED>
195.979

>  <OCTANOL_WATER_PARTITION_LOGP_OPERA_PRED>
3.62187

>  <MELTING_POINT_DEGC_OPERA_PRED>
39.1056

>  <VAPOR_PRESSURE_MMHG_OPERA_PRED>
1.00E-05

>  <WATER_SOLUBILITY_MOL/L_OPERA_PRED>
3.34E-05

>  <Shape Index>
0.72222

>  <Molecular Flexibility>
0.45087

>  <Molecular Complexity>
0.50791

>  <Electronegative Atoms>
2

>  <Stereo Centers>
0

>  <Rotatable Bonds>
5

>  <Rings Closures>
2

>  <Aromatic Rings>
2

>  <Aromatic Atoms>
12

>  <Amides>
0

>  <Amines>
0

>  <Aromatic Nitrogens>
0

>  <Shape Index 2>
0.72222

>  <Molecular Flexibility 2>
0.45087

>  <Molecular Complexity 2>
0.50791

>  <Non-C/H Atoms>
2

>  <Electronegative Atoms 2>
2

>  <Stereo Centers 2>
0

>  <Rotatable Bonds 2>
5

>  <Rings Closures 2>
2

>  <Aromatic Rings 2>
2

>  <Aromatic Atoms 2>
12

>  <sp3-Atoms>
2

>  <Amides 2>
0

>  <Amines 2>
0

>  <Aromatic Nitrogens 2>
0

>  <Basic Nitrogens>
0

$$$$
alpha-Amylcinnamyl alcohol
Actelion Java MolfileCreator 2.0

  0  0  0  0  0  0              0 V3000
M  V30 BEGIN CTAB
M  V30 COUNTS 15 15 0 0 0
M  V30 BEGIN ATOM
M  V30 1 O 0.0 0.0 0.0 0
M  V30 2 C -1.3086 -0.7309 0.0 0
M  V30 3 C -2.6172 0.0235 0.0 0
M  V30 4 C -2.629 1.5326 0.0 0
M  V30 5 C -3.9259 -0.7073 0.0 0
M  V30 6 C -1.344 2.2871 0.0 0
M  V30 7 C -5.2345 0.0471 0.0 0
M  V30 8 C -1.3557 3.7962 0.0 0
M  V30 9 C -0.0589 1.5562 0.0 0
M  V30 10 C -6.5431 -0.6837 0.0 0
M  V30 11 C -0.0707 4.5625 0.0 0
M  V30 12 C 1.2261 2.3107 0.0 0
M  V30 13 C -7.8518 0.0707 0.0 0
M  V30 14 C 1.2143 3.8315 0.0 0
M  V30 15 C -9.1604 -0.6602 0.0 0
M  V30 END ATOM
M  V30 BEGIN BOND
M  V30 1 1 1 2
M  V30 2 1 2 3
M  V30 3 2 3 4
M  V30 4 1 3 5
M  V30 5 1 4 6
M  V30 6 1 5 7
M  V30 7 2 6 8
M  V30 8 1 6 9
M  V30 9 1 7 10
M  V30 10 1 8 11
M  V30 11 2 9 12
M  V30 12 1 10 13
M  V30 13 2 11 14
M  V30 14 1 13 15
M  V30 15 1 12 14
M  V30 END BOND
M  V30 END CTAB
M  END
>  <Molecule Name>
alpha-Amylcinnamyl alcohol

>  <Order (spectra)>
132

>  <NAME>
alpha-Amylcinnamyl alcohol

>  <Molecular Formula>
C14H20O

>  <Monoisotopic Mass>
204.151415

>  <SMILES>
CCCCC/C(=C/C1=CC=CC=C1)/CO

>  <InChI>
InChI=1S/C14H20O/c1-2-3-5-10-14(12-15)11-13-8-6-4-7-9-13/h4,6-9,11,15H,2-3,5,10,12H2,1H3

>  <InChIKey>
LIPHCKNQPJXUQF-KAMYIIQDSA-N

>  <Kingdom>
Organic compounds

>  <Superclass>
Phenylpropanoids and polyketides

>  <Class>
Cinnamyl alcohols

>  <Subclass>


>  <Parent Level 1>
Cinnamyl alcohols

>  <Parent Level 2>


>  <Parent Level 3>


>  <cLogP>
4.2475

>  <cLogS>
-3.221

>  <Druglikeness>
-13.652

>  <NP-class probability>
0.89

>  <SmilesFragFp 3>


>  <MS_READY_SMILES>
-

>  <MS_READY_InChI>


>  <QSAR_READY_SMILES>
-

>  <QSAR_READY_InChI>


>  <DTXSID>
-

>  <DTXCID>
-

>  <CASRN>
-

>  <EXPOCAST_MEDIAN_EXPOSURE_PREDICTION_MG/KG-BW/DAY>
-

>  <BIOCONCENTRATION_FACTOR_TEST_PRED>
-

>  <BOILING_POINT_DEGC_TEST_PRED>
-

>  <48HR_DAPHNIA_LC50_MOL/L_TEST_PRED>
-

>  <DENSITY_G/CM^3_TEST_PRED>
-

>  <DEVTOX_TEST_PRED>
-

>  <96HR_FATHEAD_MINNOW_MOL/L_TEST_PRED>
-

>  <FLASH_POINT_DEGC_TEST_PRED>
-

>  <MELTING_POINT_DEGC_TEST_PRED>
-

>  <AMES_MUTAGENICITY_TEST_PRED>
-

>  <ORAL_RAT_LD50_MOL/KG_TEST_PRED>
-

>  <SURFACE_TENSION_DYN/CM_TEST_PRED>
-

>  <THERMAL_CONDUCTIVITY_MW/(M*K)_TEST_PRED>
-

>  <TETRAHYMENA_PYRIFORMIS_IGC50_MOL/L_TEST_PRED>
-

>  <VISCOSITY_CP_CP_TEST_PRED>
-

>  <VAPOR_PRESSURE_MMHG_TEST_PRED>
-

>  <WATER_SOLUBILITY_MOL/L_TEST_PRED>
-

>  <ATMOSPHERIC_HYDROXYLATION_RATE_(AOH)_CM3/MOLECULE*SEC_OPERA_PRED>
-

>  <BIOCONCENTRATION_FACTOR_OPERA_PRED>
-

>  <BIODEGRADATION_HALF_LIFE_DAYS_DAYS_OPERA_PRED>
-

>  <BOILING_POINT_DEGC_OPERA_PRED>
-

>  <HENRYS_LAW_ATM-M3/MOLE_OPERA_PRED>
-

>  <OPERA_KM_DAYS_OPERA_PRED>
-

>  <OCTANOL_AIR_PARTITION_COEFF_LOGKOA_OPERA_PRED>
-

>  <SOIL_ADSORPTION_COEFFICIENT_KOC_L/KG_OPERA_PRED>
-

>  <OCTANOL_WATER_PARTITION_LOGP_OPERA_PRED>
-

>  <MELTING_POINT_DEGC_OPERA_PRED>
-

>  <VAPOR_PRESSURE_MMHG_OPERA_PRED>
-

>  <WATER_SOLUBILITY_MOL/L_OPERA_PRED>
-

>  <Shape Index>
0.73333

>  <Molecular Flexibility>
0.55446

>  <Molecular Complexity>
0.49057

>  <Electronegative Atoms>
1

>  <Stereo Centers>
0

>  <Rotatable Bonds>
6

>  <Rings Closures>
1

>  <Aromatic Rings>
1

>  <Aromatic Atoms>
6

>  <Amides>
0

>  <Amines>
0

>  <Aromatic Nitrogens>
0

>  <Shape Index 2>
0.73333

>  <Molecular Flexibility 2>
0.55446

>  <Molecular Complexity 2>
0.49057

>  <Non-C/H Atoms>
1

>  <Electronegative Atoms 2>
1

>  <Stereo Centers 2>
0

>  <Rotatable Bonds 2>
6

>  <Rings Closures 2>
1

>  <Aromatic Rings 2>
1

>  <Aromatic Atoms 2>
6

>  <sp3-Atoms>
7

>  <Amides 2>
0

>  <Amines 2>
0

>  <Aromatic Nitrogens 2>
0

>  <Basic Nitrogens>
0

$$$$
Cinnamyl alcohol
Actelion Java MolfileCreator 2.0

  0  0  0  0  0  0              0 V3000
M  V30 BEGIN CTAB
M  V30 COUNTS 10 10 0 0 0
M  V30 BEGIN ATOM
M  V30 1 O 0.0 0.0 0.0 0
M  V30 2 C -1.3078 0.754 0.0 0
M  V30 3 C -2.6156 0.0235 0.0 0
M  V30 4 C -3.9235 0.7776 0.0 0
M  V30 5 C -5.2313 0.0471 0.0 0
M  V30 6 C -6.5392 0.8012 0.0 0
M  V30 7 C -5.2431 -1.4374 0.0 0
M  V30 8 C -7.847 0.0706 0.0 0
M  V30 9 C -6.5509 -2.1679 0.0 0
M  V30 10 C -7.8588 -1.4138 0.0 0
M  V30 END ATOM
M  V30 BEGIN BOND
M  V30 1 1 1 2
M  V30 2 1 2 3
M  V30 3 2 3 4
M  V30 4 1 4 5
M  V30 5 2 5 6
M  V30 6 1 5 7
M  V30 7 1 6 8
M  V30 8 2 7 9
M  V30 9 2 8 10
M  V30 10 1 9 10
M  V30 END BOND
M  V30 END CTAB
M  END
>  <Molecule Name>
Cinnamyl alcohol

>  <Order (spectra)>
137

>  <NAME>
Cinnamyl alcohol

>  <Molecular Formula>
C9H10O

>  <Monoisotopic Mass>
134.073165

>  <SMILES>
C1=CC=C(C=C1)/C=C/CO

>  <InChI>
InChI=1S/C9H10O/c10-8-4-7-9-5-2-1-3-6-9/h1-7,10H,8H2

>  <InChIKey>
OOCCDEMITAIZTP-QPJJXVBHSA-N

>  <Kingdom>
Organic compounds

>  <Superclass>
Phenylpropanoids and polyketides

>  <Class>
Cinnamyl alcohols

>  <Subclass>


>  <Parent Level 1>
Cinnamyl alcohols

>  <Parent Level 2>


>  <Parent Level 3>


>  <cLogP>
1.8235

>  <cLogS>
-2.017

>  <Druglikeness>
-1.7737

>  <NP-class probability>
-

>  <SmilesFragFp 3>


>  <MS_READY_SMILES>
-

>  <MS_READY_InChI>


>  <QSAR_READY_SMILES>
-

>  <QSAR_READY_InChI>


>  <DTXSID>
-

>  <DTXCID>
-

>  <CASRN>
-

>  <EXPOCAST_MEDIAN_EXPOSURE_PREDICTION_MG/KG-BW/DAY>
-

>  <BIOCONCENTRATION_FACTOR_TEST_PRED>
-

>  <BOILING_POINT_DEGC_TEST_PRED>
-

>  <48HR_DAPHNIA_LC50_MOL/L_TEST_PRED>
-

>  <DENSITY_G/CM^3_TEST_PRED>
-

>  <DEVTOX_TEST_PRED>
-

>  <96HR_FATHEAD_MINNOW_MOL/L_TEST_PRED>
-

>  <FLASH_POINT_DEGC_TEST_PRED>
-

>  <MELTING_POINT_DEGC_TEST_PRED>
-

>  <AMES_MUTAGENICITY_TEST_PRED>
-

>  <ORAL_RAT_LD50_MOL/KG_TEST_PRED>
-

>  <SURFACE_TENSION_DYN/CM_TEST_PRED>
-

>  <THERMAL_CONDUCTIVITY_MW/(M*K)_TEST_PRED>
-

>  <TETRAHYMENA_PYRIFORMIS_IGC50_MOL/L_TEST_PRED>
-

>  <VISCOSITY_CP_CP_TEST_PRED>
-

>  <VAPOR_PRESSURE_MMHG_TEST_PRED>
-

>  <WATER_SOLUBILITY_MOL/L_TEST_PRED>
-

>  <ATMOSPHERIC_HYDROXYLATION_RATE_(AOH)_CM3/MOLECULE*SEC_OPERA_PRED>
-

>  <BIOCONCENTRATION_FACTOR_OPERA_PRED>
-

>  <BIODEGRADATION_HALF_LIFE_DAYS_DAYS_OPERA_PRED>
-

>  <BOILING_POINT_DEGC_OPERA_PRED>
-

>  <HENRYS_LAW_ATM-M3/MOLE_OPERA_PRED>
-

>  <OPERA_KM_DAYS_OPERA_PRED>
-

>  <OCTANOL_AIR_PARTITION_COEFF_LOGKOA_OPERA_PRED>
-

>  <SOIL_ADSORPTION_COEFFICIENT_KOC_L/KG_OPERA_PRED>
-

>  <OCTANOL_WATER_PARTITION_LOGP_OPERA_PRED>
-

>  <MELTING_POINT_DEGC_OPERA_PRED>
-

>  <VAPOR_PRESSURE_MMHG_OPERA_PRED>
-

>  <WATER_SOLUBILITY_MOL/L_OPERA_PRED>
-

>  <Shape Index>
0.8

>  <Molecular Flexibility>
0.46337

>  <Molecular Complexity>
0.49698

>  <Electronegative Atoms>
1

>  <Stereo Centers>
0

>  <Rotatable Bonds>
2

>  <Rings Closures>
1

>  <Aromatic Rings>
1

>  <Aromatic Atoms>
6

>  <Amides>
0

>  <Amines>
0

>  <Aromatic Nitrogens>
0

>  <Shape Index 2>
0.8

>  <Molecular Flexibility 2>
0.46337

>  <Molecular Complexity 2>
0.49698

>  <Non-C/H Atoms>
1

>  <Electronegative Atoms 2>
1

>  <Stereo Centers 2>
0

>  <Rotatable Bonds 2>
2

>  <Rings Closures 2>
1

>  <Aromatic Rings 2>
1

>  <Aromatic Atoms 2>
6

>  <sp3-Atoms>
2

>  <Amides 2>
0

>  <Amines 2>
0

>  <Aromatic Nitrogens 2>
0

>  <Basic Nitrogens>
0

$$$$
Diniconazole
Actelion Java MolfileCreator 2.0

  0  0  0  0  0  0              0 V3000
M  V30 BEGIN CTAB
M  V30 COUNTS 21 22 0 0 0
M  V30 BEGIN ATOM
M  V30 1 Cl 0.0 0.0 0.0 0
M  V30 2 C -0.0118 -1.4896 0.0 0
M  V30 3 C -1.3241 -2.2345 0.0 0
M  V30 4 C 1.2768 -2.2345 0.0 0
M  V30 5 C -1.3359 -3.7242 0.0 0
M  V30 6 C -2.6365 -1.4778 0.0 0
M  V30 7 C 1.265 -3.7242 0.0 0
M  V30 8 C -0.0472 -4.469 0.0 0
M  V30 9 C -3.9488 -2.2227 0.0 0
M  V30 10 Cl 2.5537 -4.469 0.0 0
M  V30 11 N -3.9606 -3.7123 0.0 0
M  V30 12 C -5.2612 -1.466 0.0 0 CFG=1
M  V30 13 N -5.1902 -4.5872 0.0 0
M  V30 14 C -2.7547 -4.5872 0.0 0
M  V30 15 O -5.273 0.0472 0.0 0
M  V30 16 C -6.5735 -2.2108 0.0 0
M  V30 17 C -4.7409 -6.006 0.0 0
M  V30 18 N -3.2276 -6.006 0.0 0
M  V30 19 C -5.8405 -3.4995 0.0 0
M  V30 20 C -7.8858 -2.9439 0.0 0
M  V30 21 C -7.3302 -0.8985 0.0 0
M  V30 END ATOM
M  V30 BEGIN BOND
M  V30 1 1 1 2
M  V30 2 2 2 3
M  V30 3 1 2 4
M  V30 4 1 3 5
M  V30 5 1 3 6
M  V30 6 2 4 7
M  V30 7 2 5 8
M  V30 8 2 6 9
M  V30 9 1 7 10
M  V30 10 1 9 11
M  V30 11 1 9 12
M  V30 12 1 11 13
M  V30 13 1 11 14
M  V30 14 1 12 15 CFG=3
M  V30 15 1 12 16
M  V30 16 2 13 17
M  V30 17 2 14 18
M  V30 18 1 16 19
M  V30 19 1 16 20
M  V30 20 1 16 21
M  V30 21 1 7 8
M  V30 22 1 17 18
M  V30 END BOND
M  V30 BEGIN COLLECTION
M  V30 MDLV30/STERAC1 ATOMS=(1 12)
M  V30 END COLLECTION
M  V30 END CTAB
M  END
>  <Molecule Name>
Diniconazole

>  <Order (spectra)>
339

>  <NAME>
Diniconazole

>  <Molecular Formula>
C15H17N3OCl2

>  <Monoisotopic Mass>
325.074866

>  <SMILES>
CC(C)(C)C(/C(=C/C1=C(C=C(C=C1)Cl)Cl)/N2C=NC=N2)O

>  <InChI>
InChI=1S/C15H17Cl2N3O/c1-15(2,3)14(21)13(20-9-18-8-19-20)6-10-4-5-11(16)7-12(10)17/h4-9,14,21H,1-3H3/t14-/m1/s1

>  <InChIKey>
FBOUIAKEJMZPQG-MLPAPPSSSA-N

>  <Kingdom>
Organic compounds

>  <Superclass>
Phenylpropanoids and polyketides

>  <Class>
Cinnamyl alcohols

>  <Subclass>


>  <Parent Level 1>
Cinnamyl alcohols

>  <Parent Level 2>


>  <Parent Level 3>


>  <cLogP>
4.2342

>  <cLogS>
-5.165

>  <Druglikeness>
0.65228

>  <NP-class probability>
0.45

>  <SmilesFragFp 3>


>  <MS_READY_SMILES>
-

>  <MS_READY_InChI>


>  <QSAR_READY_SMILES>
-

>  <QSAR_READY_InChI>


>  <DTXSID>
-

>  <DTXCID>
-

>  <CASRN>
-

>  <EXPOCAST_MEDIAN_EXPOSURE_PREDICTION_MG/KG-BW/DAY>
-

>  <BIOCONCENTRATION_FACTOR_TEST_PRED>
-

>  <BOILING_POINT_DEGC_TEST_PRED>
-

>  <48HR_DAPHNIA_LC50_MOL/L_TEST_PRED>
-

>  <DENSITY_G/CM^3_TEST_PRED>
-

>  <DEVTOX_TEST_PRED>
-

>  <96HR_FATHEAD_MINNOW_MOL/L_TEST_PRED>
-

>  <FLASH_POINT_DEGC_TEST_PRED>
-

>  <MELTING_POINT_DEGC_TEST_PRED>
-

>  <AMES_MUTAGENICITY_TEST_PRED>
-

>  <ORAL_RAT_LD50_MOL/KG_TEST_PRED>
-

>  <SURFACE_TENSION_DYN/CM_TEST_PRED>
-

>  <THERMAL_CONDUCTIVITY_MW/(M*K)_TEST_PRED>
-

>  <TETRAHYMENA_PYRIFORMIS_IGC50_MOL/L_TEST_PRED>
-

>  <VISCOSITY_CP_CP_TEST_PRED>
-

>  <VAPOR_PRESSURE_MMHG_TEST_PRED>
-

>  <WATER_SOLUBILITY_MOL/L_TEST_PRED>
-

>  <ATMOSPHERIC_HYDROXYLATION_RATE_(AOH)_CM3/MOLECULE*SEC_OPERA_PRED>
-

>  <BIOCONCENTRATION_FACTOR_OPERA_PRED>
-

>  <BIODEGRADATION_HALF_LIFE_DAYS_DAYS_OPERA_PRED>
-

>  <BOILING_POINT_DEGC_OPERA_PRED>
-

>  <HENRYS_LAW_ATM-M3/MOLE_OPERA_PRED>
-

>  <OPERA_KM_DAYS_OPERA_PRED>
-

>  <OCTANOL_AIR_PARTITION_COEFF_LOGKOA_OPERA_PRED>
-

>  <SOIL_ADSORPTION_COEFFICIENT_KOC_L/KG_OPERA_PRED>
-

>  <OCTANOL_WATER_PARTITION_LOGP_OPERA_PRED>
-

>  <MELTING_POINT_DEGC_OPERA_PRED>
-

>  <VAPOR_PRESSURE_MMHG_OPERA_PRED>
-

>  <WATER_SOLUBILITY_MOL/L_OPERA_PRED>
-

>  <Shape Index>
0.47619

>  <Molecular Flexibility>
0.47543

>  <Molecular Complexity>
0.77811

>  <Electronegative Atoms>
6

>  <Stereo Centers>
1

>  <Rotatable Bonds>
4

>  <Rings Closures>
2

>  <Aromatic Rings>
2

>  <Aromatic Atoms>
11

>  <Amides>
0

>  <Amines>
0

>  <Aromatic Nitrogens>
3

>  <Shape Index 2>
0.47619

>  <Molecular Flexibility 2>
0.47543

>  <Molecular Complexity 2>
0.77811

>  <Non-C/H Atoms>
6

>  <Electronegative Atoms 2>
6

>  <Stereo Centers 2>
1

>  <Rotatable Bonds 2>
4

>  <Rings Closures 2>
2

>  <Aromatic Rings 2>
2

>  <Aromatic Atoms 2>
11

>  <sp3-Atoms>
6

>  <Amides 2>
0

>  <Amines 2>
0

>  <Aromatic Nitrogens 2>
3

>  <Basic Nitrogens>
0

$$$$
Carbofuran phenol
Actelion Java MolfileCreator 2.0

  0  0  0  0  0  0              0 V3000
M  V30 BEGIN CTAB
M  V30 COUNTS 12 13 0 0 0
M  V30 BEGIN ATOM
M  V30 1 O 0.0 0.0 0.0 0
M  V30 2 C 1.1013 -0.9947 0.0 0
M  V30 3 C 0.6039 1.3856 0.0 0
M  V30 4 C 1.0895 -2.4869 0.0 0
M  V30 5 C 2.3922 -0.2368 0.0 0
M  V30 6 C 2.0843 1.2434 0.0 0
M  V30 7 C 0.5921 2.9014 0.0 0
M  V30 8 C -0.7105 2.1435 0.0 0
M  V30 9 O -0.225 -3.233 0.0 0
M  V30 10 C 2.3804 -3.233 0.0 0
M  V30 11 C 3.6831 -0.9829 0.0 0
M  V30 12 C 3.6712 -2.4751 0.0 0
M  V30 END ATOM
M  V30 BEGIN BOND
M  V30 1 1 1 2
M  V30 2 1 1 3
M  V30 3 2 2 4
M  V30 4 1 2 5
M  V30 5 1 3 6
M  V30 6 1 3 7
M  V30 7 1 3 8
M  V30 8 1 4 9
M  V30 9 1 4 10
M  V30 10 2 5 11
M  V30 11 2 10 12
M  V30 12 1 5 6
M  V30 13 1 11 12
M  V30 END BOND
M  V30 END CTAB
M  END
>  <Molecule Name>
Carbofuran phenol

>  <Order (spectra)>
201

>  <NAME>
Carbofuran phenol

>  <Molecular Formula>
C10H12O2

>  <Monoisotopic Mass>
164.08373

>  <SMILES>
CC1(C)CC2=C(O1)C(O)=CC=C2

>  <InChI>
InChI=1S/C10H12O2/c1-10(2)6-7-4-3-5-8(11)9(7)12-10/h3-5,11H,6H2,1-2H3

>  <InChIKey>
WJGPNUBJBMCRQH-UHFFFAOYSA-N

>  <Kingdom>
Organic compounds

>  <Superclass>
Organoheterocyclic compounds

>  <Class>
Coumarans

>  <Subclass>


>  <Parent Level 1>
Coumarans

>  <Parent Level 2>


>  <Parent Level 3>


>  <cLogP>
2.1624

>  <cLogS>
-2.174

>  <Druglikeness>
-3.3464

>  <NP-class probability>
0.75

>  <SmilesFragFp 3>


>  <MS_READY_SMILES>
CC1(C)CC2=C(O1)C(O)=CC=C2

>  <MS_READY_InChI>
InChI=1S/C10H12O2/c1-10(2)6-7-4-3-5-8(11)9(7)12-10/h3-5,11H,6H2,1-2H3

>  <QSAR_READY_SMILES>
CC1(C)CC2=C(O1)C(O)=CC=C2

>  <QSAR_READY_InChI>
InChI=1S/C10H12O2/c1-10(2)6-7-4-3-5-8(11)9(7)12-10/h3-5,11H,6H2,1-2H3

>  <DTXSID>
DTXSID2027414

>  <DTXCID>
DTXCID407414

>  <CASRN>
1563-38-8

>  <EXPOCAST_MEDIAN_EXPOSURE_PREDICTION_MG/KG-BW/DAY>
4.41E-06

>  <BIOCONCENTRATION_FACTOR_TEST_PRED>
29.1743

>  <BOILING_POINT_DEGC_TEST_PRED>
252.105

>  <48HR_DAPHNIA_LC50_MOL/L_TEST_PRED>
4.75E-05

>  <DENSITY_G/CM^3_TEST_PRED>
1.111

>  <DEVTOX_TEST_PRED>
0.813

>  <96HR_FATHEAD_MINNOW_MOL/L_TEST_PRED>
0.000267301

>  <FLASH_POINT_DEGC_TEST_PRED>
106.12

>  <MELTING_POINT_DEGC_TEST_PRED>
57.516

>  <AMES_MUTAGENICITY_TEST_PRED>
0.007

>  <ORAL_RAT_LD50_MOL/KG_TEST_PRED>
0.00368129

>  <SURFACE_TENSION_DYN/CM_TEST_PRED>
38.158

>  <THERMAL_CONDUCTIVITY_MW/(M*K)_TEST_PRED>
138.372

>  <TETRAHYMENA_PYRIFORMIS_IGC50_MOL/L_TEST_PRED>
0.000414954

>  <VISCOSITY_CP_CP_TEST_PRED>
9.59401

>  <VAPOR_PRESSURE_MMHG_TEST_PRED>
0.00486407

>  <WATER_SOLUBILITY_MOL/L_TEST_PRED>
0.012106

>  <ATMOSPHERIC_HYDROXYLATION_RATE_(AOH)_CM3/MOLECULE*SEC_OPERA_PRED>
3.56E-11

>  <BIOCONCENTRATION_FACTOR_OPERA_PRED>
7.528

>  <BIODEGRADATION_HALF_LIFE_DAYS_DAYS_OPERA_PRED>
3.32935

>  <BOILING_POINT_DEGC_OPERA_PRED>
268.172

>  <HENRYS_LAW_ATM-M3/MOLE_OPERA_PRED>
2.37E-07

>  <OPERA_KM_DAYS_OPERA_PRED>
0.0993257

>  <OCTANOL_AIR_PARTITION_COEFF_LOGKOA_OPERA_PRED>
7.72233

>  <SOIL_ADSORPTION_COEFFICIENT_KOC_L/KG_OPERA_PRED>
1470.26

>  <OCTANOL_WATER_PARTITION_LOGP_OPERA_PRED>
2.08257

>  <MELTING_POINT_DEGC_OPERA_PRED>
26.9664

>  <VAPOR_PRESSURE_MMHG_OPERA_PRED>
0.00437717

>  <WATER_SOLUBILITY_MOL/L_OPERA_PRED>
0.00662292

>  <Shape Index>
0.5

>  <Molecular Flexibility>
0

>  <Molecular Complexity>
0.75181

>  <Electronegative Atoms>
2

>  <Stereo Centers>
0

>  <Rotatable Bonds>
0

>  <Rings Closures>
2

>  <Aromatic Rings>
1

>  <Aromatic Atoms>
6

>  <Amides>
0

>  <Amines>
0

>  <Aromatic Nitrogens>
0

>  <Shape Index 2>
0.5

>  <Molecular Flexibility 2>
0

>  <Molecular Complexity 2>
0.75181

>  <Non-C/H Atoms>
2

>  <Electronegative Atoms 2>
2

>  <Stereo Centers 2>
0

>  <Rotatable Bonds 2>
0

>  <Rings Closures 2>
2

>  <Aromatic Rings 2>
1

>  <Aromatic Atoms 2>
6

>  <sp3-Atoms>
6

>  <Amides 2>
0

>  <Amines 2>
0

>  <Aromatic Nitrogens 2>
0

>  <Basic Nitrogens>
0

$$$$
Furathiocarb
Actelion Java MolfileCreator 2.0

  0  0  0  0  0  0              0 V3000
M  V30 BEGIN CTAB
M  V30 COUNTS 26 27 0 0 0
M  V30 BEGIN ATOM
M  V30 1 S 0.0 0.0 0.0 0
M  V30 2 N 1.2899 -0.7455 0.0 0
M  V30 3 N -1.3136 -0.7455 0.0 0
M  V30 4 C 2.5799 0.0118 0.0 0
M  V30 5 C 1.2781 -2.2367 0.0 0
M  V30 6 C -2.6272 0.0118 0.0 0
M  V30 7 C -1.3254 -2.2367 0.0 0
M  V30 8 O 2.5681 1.5266 0.0 0
M  V30 9 O 3.8699 -0.7337 0.0 0
M  V30 10 O -2.6391 1.5266 0.0 0
M  V30 11 O -3.9409 -0.7337 0.0 0
M  V30 12 C 5.1599 0.0236 0.0 0
M  V30 13 C -5.2545 0.0236 0.0 0
M  V30 14 C 6.4498 -0.7219 0.0 0
M  V30 15 C 5.148 1.5385 0.0 0
M  V30 16 C -6.5682 -0.7219 0.0 0
M  V30 17 O 6.7457 -2.1775 0.0 0
M  V30 18 C 7.7398 0.0355 0.0 0
M  V30 19 C 6.438 2.2959 0.0 0
M  V30 20 C -7.8818 0.0355 0.0 0
M  V30 21 C 8.225 -2.3195 0.0 0
M  V30 22 C 7.728 1.5503 0.0 0
M  V30 23 C 8.8404 -0.9586 0.0 0
M  V30 24 C -9.1955 -0.71 0.0 0
M  V30 25 C 8.2132 -3.8107 0.0 0
M  V30 26 C 9.515 -3.0533 0.0 0
M  V30 END ATOM
M  V30 BEGIN BOND
M  V30 1 1 1 2
M  V30 2 1 1 3
M  V30 3 1 2 4
M  V30 4 1 2 5
M  V30 5 1 3 6
M  V30 6 1 3 7
M  V30 7 2 4 8
M  V30 8 1 4 9
M  V30 9 2 6 10
M  V30 10 1 6 11
M  V30 11 1 9 12
M  V30 12 1 11 13
M  V30 13 2 12 14
M  V30 14 1 12 15
M  V30 15 1 13 16
M  V30 16 1 14 17
M  V30 17 1 14 18
M  V30 18 2 15 19
M  V30 19 1 16 20
M  V30 20 1 17 21
M  V30 21 2 18 22
M  V30 22 1 18 23
M  V30 23 1 20 24
M  V30 24 1 21 25
M  V30 25 1 21 26
M  V30 26 1 19 22
M  V30 27 1 21 23
M  V30 END BOND
M  V30 END CTAB
M  END
>  <Molecule Name>
Furathiocarb

>  <Order (spectra)>
250

>  <NAME>
Furathiocarb

>  <Molecular Formula>
C18H26N2O5S

>  <Monoisotopic Mass>
382.156243

>  <SMILES>
CCCCOC(=O)N(C)SN(C)C(=O)OC1=CC=CC2=C1OC(C)(C)C2

>  <InChI>
InChI=1S/C18H26N2O5S/c1-6-7-11-23-16(21)19(4)26-20(5)17(22)24-14-10-8-9-13-12-18(2,3)25-15(13)14/h8-10H,6-7,11-12H2,1-5H3

>  <InChIKey>
HAWJXYBZNNRMNO-UHFFFAOYSA-N

>  <Kingdom>
Organic compounds

>  <Superclass>
Organoheterocyclic compounds

>  <Class>
Coumarans

>  <Subclass>


>  <Parent Level 1>
Coumarans

>  <Parent Level 2>


>  <Parent Level 3>


>  <cLogP>
4.027

>  <cLogS>
-5.375

>  <Druglikeness>
-9.3589

>  <NP-class probability>
0.18

>  <SmilesFragFp 3>


>  <MS_READY_SMILES>
CCCCOC(=O)N(C)SN(C)C(=O)OC1=CC=CC2=C1OC(C)(C)C2

>  <MS_READY_InChI>
InChI=1S/C18H26N2O5S/c1-6-7-11-23-16(21)19(4)26-20(5)17(22)24-14-10-8-9-13-12-18(2,3)25-15(13)14/h8-10H,6-7,11-12H2,1-5H3

>  <QSAR_READY_SMILES>
CCCCOC(=O)N(C)SN(C)C(=O)OC1=CC=CC2=C1OC(C)(C)C2

>  <QSAR_READY_InChI>
InChI=1S/C18H26N2O5S/c1-6-7-11-23-16(21)19(4)26-20(5)17(22)24-14-10-8-9-13-12-18(2,3)25-15(13)14/h8-10H,6-7,11-12H2,1-5H3

>  <DTXSID>
DTXSID3052725

>  <DTXCID>
DTXCID3031315

>  <CASRN>
65907-30-4

>  <EXPOCAST_MEDIAN_EXPOSURE_PREDICTION_MG/KG-BW/DAY>
1.68E-07

>  <BIOCONCENTRATION_FACTOR_TEST_PRED>
16.9824

>  <BOILING_POINT_DEGC_TEST_PRED>
299.239

>  <48HR_DAPHNIA_LC50_MOL/L_TEST_PRED>
5.52E-08

>  <DENSITY_G/CM^3_TEST_PRED>
1.312

>  <DEVTOX_TEST_PRED>
1.009

>  <96HR_FATHEAD_MINNOW_MOL/L_TEST_PRED>
1.58E-06

>  <FLASH_POINT_DEGC_TEST_PRED>
198.087

>  <MELTING_POINT_DEGC_TEST_PRED>
107.724

>  <AMES_MUTAGENICITY_TEST_PRED>
0.216

>  <ORAL_RAT_LD50_MOL/KG_TEST_PRED>
0.000126765

>  <SURFACE_TENSION_DYN/CM_TEST_PRED>
-

>  <THERMAL_CONDUCTIVITY_MW/(M*K)_TEST_PRED>
-

>  <TETRAHYMENA_PYRIFORMIS_IGC50_MOL/L_TEST_PRED>
-

>  <VISCOSITY_CP_CP_TEST_PRED>
-

>  <VAPOR_PRESSURE_MMHG_TEST_PRED>
2.92E-08

>  <WATER_SOLUBILITY_MOL/L_TEST_PRED>
1.60E-05

>  <ATMOSPHERIC_HYDROXYLATION_RATE_(AOH)_CM3/MOLECULE*SEC_OPERA_PRED>
6.26E-11

>  <BIOCONCENTRATION_FACTOR_OPERA_PRED>
8.59116

>  <BIODEGRADATION_HALF_LIFE_DAYS_DAYS_OPERA_PRED>
4.72437

>  <BOILING_POINT_DEGC_OPERA_PRED>
364.833

>  <HENRYS_LAW_ATM-M3/MOLE_OPERA_PRED>
3.24E-08

>  <OPERA_KM_DAYS_OPERA_PRED>
4.75738

>  <OCTANOL_AIR_PARTITION_COEFF_LOGKOA_OPERA_PRED>
10.6018

>  <SOIL_ADSORPTION_COEFFICIENT_KOC_L/KG_OPERA_PRED>
714.35

>  <OCTANOL_WATER_PARTITION_LOGP_OPERA_PRED>
4.69826

>  <MELTING_POINT_DEGC_OPERA_PRED>
70.6452

>  <VAPOR_PRESSURE_MMHG_OPERA_PRED>
2.94E-08

>  <WATER_SOLUBILITY_MOL/L_OPERA_PRED>
2.84E-05

>  <Shape Index>
0.61538

>  <Molecular Flexibility>
0.48474

>  <Molecular Complexity>
0.78589

>  <Electronegative Atoms>
8

>  <Stereo Centers>
0

>  <Rotatable Bonds>
8

>  <Rings Closures>
2

>  <Aromatic Rings>
1

>  <Aromatic Atoms>
6

>  <Amides>
0

>  <Amines>
0

>  <Aromatic Nitrogens>
0

>  <Shape Index 2>
0.61538

>  <Molecular Flexibility 2>
0.48474

>  <Molecular Complexity 2>
0.78589

>  <Non-C/H Atoms>
8

>  <Electronegative Atoms 2>
8

>  <Stereo Centers 2>
0

>  <Rotatable Bonds 2>
8

>  <Rings Closures 2>
2

>  <Aromatic Rings 2>
1

>  <Aromatic Atoms 2>
6

>  <sp3-Atoms>
14

>  <Amides 2>
0

>  <Amines 2>
0

>  <Aromatic Nitrogens 2>
0

>  <Basic Nitrogens>
0

$$$$
Carbofuran
Actelion Java MolfileCreator 2.0

  0  0  0  0  0  0              0 V3000
M  V30 BEGIN CTAB
M  V30 COUNTS 16 17 0 0 0
M  V30 BEGIN ATOM
M  V30 1 O 0.0 0.0 0.0 0
M  V30 2 C -0.0118 1.5174 0.0 0
M  V30 3 O 1.2803 2.2761 0.0 0
M  V30 4 N -1.3277 2.2761 0.0 0
M  V30 5 C 2.5725 1.5292 0.0 0
M  V30 6 C -2.6436 1.5292 0.0 0
M  V30 7 C 2.5606 0.0355 0.0 0
M  V30 8 C 3.8646 2.2879 0.0 0
M  V30 9 O 1.4344 -0.9602 0.0 0
M  V30 10 C 3.8528 -0.7112 0.0 0
M  V30 11 C 5.1568 1.5411 0.0 0
M  V30 12 C 2.039 -2.3235 0.0 0
M  V30 13 C 5.145 0.0474 0.0 0
M  V30 14 C 3.5327 -2.1694 0.0 0
M  V30 15 C 0.7231 -3.0585 0.0 0
M  V30 16 C 2.0271 -3.8172 0.0 0
M  V30 END ATOM
M  V30 BEGIN BOND
M  V30 1 2 1 2
M  V30 2 1 2 3
M  V30 3 1 2 4
M  V30 4 1 3 5
M  V30 5 1 4 6
M  V30 6 2 5 7
M  V30 7 1 5 8
M  V30 8 1 7 9
M  V30 9 1 7 10
M  V30 10 2 8 11
M  V30 11 1 9 12
M  V30 12 2 10 13
M  V30 13 1 10 14
M  V30 14 1 12 15
M  V30 15 1 12 16
M  V30 16 1 11 13
M  V30 17 1 12 14
M  V30 END BOND
M  V30 END CTAB
M  END
>  <Molecule Name>
Carbofuran

>  <Order (spectra)>
267

>  <NAME>
Carbofuran

>  <Molecular Formula>
C12H15NO3

>  <Monoisotopic Mass>
221.105194

>  <SMILES>
CNC(=O)OC1=CC=CC2=C1OC(C)(C)C2

>  <InChI>
InChI=1S/C12H15NO3/c1-12(2)7-8-5-4-6-9(10(8)16-12)15-11(14)13-3/h4-6H,7H2,1-3H3,(H,13,14)

>  <InChIKey>
DUEPRVBVGDRKAG-UHFFFAOYSA-N

>  <Kingdom>
Organic compounds

>  <Superclass>
Organoheterocyclic compounds

>  <Class>
Coumarans

>  <Subclass>


>  <Parent Level 1>
Coumarans

>  <Parent Level 2>


>  <Parent Level 3>


>  <cLogP>
2.2238

>  <cLogS>
-2.949

>  <Druglikeness>
-4.8699

>  <NP-class probability>
0.33

>  <SmilesFragFp 3>


>  <MS_READY_SMILES>
CNC(=O)OC1=CC=CC2=C1OC(C)(C)C2

>  <MS_READY_InChI>
InChI=1S/C12H15NO3/c1-12(2)7-8-5-4-6-9(10(8)16-12)15-11(14)13-3/h4-6H,7H2,1-3H3,(H,13,14)

>  <QSAR_READY_SMILES>
CNC(=O)OC1=CC=CC2=C1OC(C)(C)C2

>  <QSAR_READY_InChI>
InChI=1S/C12H15NO3/c1-12(2)7-8-5-4-6-9(10(8)16-12)15-11(14)13-3/h4-6H,7H2,1-3H3,(H,13,14)

>  <DTXSID>
DTXSID9020249

>  <DTXCID>
DTXCID70249

>  <CASRN>
1563-66-2

>  <EXPOCAST_MEDIAN_EXPOSURE_PREDICTION_MG/KG-BW/DAY>
7.84E-08

>  <BIOCONCENTRATION_FACTOR_TEST_PRED>
11.5878

>  <BOILING_POINT_DEGC_TEST_PRED>
319.001

>  <48HR_DAPHNIA_LC50_MOL/L_TEST_PRED>
4.20E-06

>  <DENSITY_G/CM^3_TEST_PRED>
1.115

>  <DEVTOX_TEST_PRED>
0.767

>  <96HR_FATHEAD_MINNOW_MOL/L_TEST_PRED>
6.58E-05

>  <FLASH_POINT_DEGC_TEST_PRED>
166.145

>  <MELTING_POINT_DEGC_TEST_PRED>
118.814

>  <AMES_MUTAGENICITY_TEST_PRED>
0.698

>  <ORAL_RAT_LD50_MOL/KG_TEST_PRED>
0.000269153

>  <SURFACE_TENSION_DYN/CM_TEST_PRED>
-

>  <THERMAL_CONDUCTIVITY_MW/(M*K)_TEST_PRED>
-

>  <TETRAHYMENA_PYRIFORMIS_IGC50_MOL/L_TEST_PRED>
0.000514044

>  <VISCOSITY_CP_CP_TEST_PRED>
25.7632

>  <VAPOR_PRESSURE_MMHG_TEST_PRED>
3.40E-06

>  <WATER_SOLUBILITY_MOL/L_TEST_PRED>
0.00188365

>  <ATMOSPHERIC_HYDROXYLATION_RATE_(AOH)_CM3/MOLECULE*SEC_OPERA_PRED>
5.25E-11

>  <BIOCONCENTRATION_FACTOR_OPERA_PRED>
2.8901

>  <BIODEGRADATION_HALF_LIFE_DAYS_DAYS_OPERA_PRED>
4.47288

>  <BOILING_POINT_DEGC_OPERA_PRED>
285.117

>  <HENRYS_LAW_ATM-M3/MOLE_OPERA_PRED>
2.75E-09

>  <OPERA_KM_DAYS_OPERA_PRED>
0.625898

>  <OCTANOL_AIR_PARTITION_COEFF_LOGKOA_OPERA_PRED>
9.03678

>  <SOIL_ADSORPTION_COEFFICIENT_KOC_L/KG_OPERA_PRED>
56.3325

>  <OCTANOL_WATER_PARTITION_LOGP_OPERA_PRED>
1.97375

>  <MELTING_POINT_DEGC_OPERA_PRED>
150.869

>  <VAPOR_PRESSURE_MMHG_OPERA_PRED>
4.85E-06

>  <WATER_SOLUBILITY_MOL/L_OPERA_PRED>
0.00174481

>  <Shape Index>
0.5625

>  <Molecular Flexibility>
0.048475

>  <Molecular Complexity>
0.75619

>  <Electronegative Atoms>
4

>  <Stereo Centers>
0

>  <Rotatable Bonds>
2

>  <Rings Closures>
2

>  <Aromatic Rings>
1

>  <Aromatic Atoms>
6

>  <Amides>
1

>  <Amines>
0

>  <Aromatic Nitrogens>
0

>  <Shape Index 2>
0.5625

>  <Molecular Flexibility 2>
0.048475

>  <Molecular Complexity 2>
0.75619

>  <Non-C/H Atoms>
4

>  <Electronegative Atoms 2>
4

>  <Stereo Centers 2>
0

>  <Rotatable Bonds 2>
2

>  <Rings Closures 2>
2

>  <Aromatic Rings 2>
1

>  <Aromatic Atoms 2>
6

>  <sp3-Atoms>
7

>  <Amides 2>
1

>  <Amines 2>
0

>  <Aromatic Nitrogens 2>
0

>  <Basic Nitrogens>
0

$$$$
Ethofumesate
Actelion Java MolfileCreator 2.0

  0  0  0  0  0  0              0 V3000
M  V30 BEGIN CTAB
M  V30 COUNTS 19 20 0 0 0
M  V30 BEGIN ATOM
M  V30 1 S 0.0 0.0 0.0 0
M  V30 2 O -1.308 -0.7306 0.0 0
M  V30 3 O 1.2845 0.7659 0.0 0
M  V30 4 O -0.7542 1.308 0.0 0
M  V30 5 C 0.7424 -1.2845 0.0 0
M  V30 6 C -2.2626 1.3198 0.0 0
M  V30 7 C -3.0168 0.0353 0.0 0
M  V30 8 C -3.0168 2.6279 0.0 0
M  V30 9 C -4.5252 0.0471 0.0 0
M  V30 10 C -4.5252 2.6397 0.0 0
M  V30 11 C -5.2794 1.3552 0.0 0
M  V30 12 C -5.5387 -1.0488 0.0 0
M  V30 13 O -6.7525 1.0606 0.0 0
M  V30 14 C -6.9175 -0.4242 0.0 0 CFG=2
M  V30 15 C -6.01 -2.4629 0.0 0
M  V30 16 C -4.5488 -2.1447 0.0 0
M  V30 17 O -8.2255 -1.1666 0.0 0
M  V30 18 C -9.5336 -0.4124 0.0 0
M  V30 19 C -10.8417 -1.1548 0.0 0
M  V30 END ATOM
M  V30 BEGIN BOND
M  V30 1 2 1 2
M  V30 2 2 1 3
M  V30 3 1 1 4
M  V30 4 1 1 5
M  V30 5 1 4 6
M  V30 6 2 6 7
M  V30 7 1 6 8
M  V30 8 1 7 9
M  V30 9 2 8 10
M  V30 10 2 9 11
M  V30 11 1 9 12
M  V30 12 1 11 13
M  V30 13 1 12 14
M  V30 14 1 12 15
M  V30 15 1 12 16
M  V30 16 1 14 17 CFG=1
M  V30 17 1 17 18
M  V30 18 1 18 19
M  V30 19 1 10 11
M  V30 20 1 13 14
M  V30 END BOND
M  V30 BEGIN COLLECTION
M  V30 MDLV30/STERAC1 ATOMS=(1 14)
M  V30 END COLLECTION
M  V30 END CTAB
M  END
>  <Molecule Name>
Ethofumesate

>  <Order (spectra)>
316

>  <NAME>
Ethofumesate

>  <Molecular Formula>
C13H18O5S

>  <Monoisotopic Mass>
286.087495

>  <SMILES>
CCOC1OC2=C(C=C(OS(C)(=O)=O)C=C2)C1(C)C

>  <InChI>
InChI=1S/C13H18O5S/c1-5-16-12-13(2,3)10-8-9(18-19(4,14)15)6-7-11(10)17-12/h6-8,12H,5H2,1-4H3/t12-/m1/s1

>  <InChIKey>
IRCMYGHHKLLGHV-UHFFFAOYSA-N

>  <Kingdom>
Organic compounds

>  <Superclass>
Organoheterocyclic compounds

>  <Class>
Coumarans

>  <Subclass>


>  <Parent Level 1>
Coumarans

>  <Parent Level 2>


>  <Parent Level 3>


>  <cLogP>
2.4486

>  <cLogS>
-3.41

>  <Druglikeness>
-6.1493

>  <NP-class probability>
0.34

>  <SmilesFragFp 3>


>  <MS_READY_SMILES>
CCOC1OC2=C(C=C(OS(C)(=O)=O)C=C2)C1(C)C

>  <MS_READY_InChI>
InChI=1S/C13H18O5S/c1-5-16-12-13(2,3)10-8-9(18-19(4,14)15)6-7-11(10)17-12/h6-8,12H,5H2,1-4H3/t12-/m1/s1

>  <QSAR_READY_SMILES>
CCOC1OC2=C(C=C(OS(C)(=O)=O)C=C2)C1(C)C

>  <QSAR_READY_InChI>
InChI=1S/C13H18O5S/c1-5-16-12-13(2,3)10-8-9(18-19(4,14)15)6-7-11(10)17-12/h6-8,12H,5H2,1-4H3/t12-/m1/s1

>  <DTXSID>
DTXSID8034580

>  <DTXCID>
DTXCID6014580

>  <CASRN>
26225-79-6

>  <EXPOCAST_MEDIAN_EXPOSURE_PREDICTION_MG/KG-BW/DAY>
7.00E-06

>  <BIOCONCENTRATION_FACTOR_TEST_PRED>
-

>  <BOILING_POINT_DEGC_TEST_PRED>
344.256

>  <48HR_DAPHNIA_LC50_MOL/L_TEST_PRED>
8.43E-06

>  <DENSITY_G/CM^3_TEST_PRED>
1.304

>  <DEVTOX_TEST_PRED>
1.005

>  <96HR_FATHEAD_MINNOW_MOL/L_TEST_PRED>
9.66E-05

>  <FLASH_POINT_DEGC_TEST_PRED>
218.225

>  <MELTING_POINT_DEGC_TEST_PRED>
80.103

>  <AMES_MUTAGENICITY_TEST_PRED>
0.666

>  <ORAL_RAT_LD50_MOL/KG_TEST_PRED>
0.00410204

>  <SURFACE_TENSION_DYN/CM_TEST_PRED>
-

>  <THERMAL_CONDUCTIVITY_MW/(M*K)_TEST_PRED>
-

>  <TETRAHYMENA_PYRIFORMIS_IGC50_MOL/L_TEST_PRED>
0.000158855

>  <VISCOSITY_CP_CP_TEST_PRED>
-

>  <VAPOR_PRESSURE_MMHG_TEST_PRED>
8.47E-06

>  <WATER_SOLUBILITY_MOL/L_TEST_PRED>
0.000549541

>  <ATMOSPHERIC_HYDROXYLATION_RATE_(AOH)_CM3/MOLECULE*SEC_OPERA_PRED>
1.58E-11

>  <BIOCONCENTRATION_FACTOR_OPERA_PRED>
1.91856

>  <BIODEGRADATION_HALF_LIFE_DAYS_DAYS_OPERA_PRED>
4.72739

>  <BOILING_POINT_DEGC_OPERA_PRED>
315.005

>  <HENRYS_LAW_ATM-M3/MOLE_OPERA_PRED>
1.25E-06

>  <OPERA_KM_DAYS_OPERA_PRED>
1.08453

>  <OCTANOL_AIR_PARTITION_COEFF_LOGKOA_OPERA_PRED>
7.77586

>  <SOIL_ADSORPTION_COEFFICIENT_KOC_L/KG_OPERA_PRED>
338.726

>  <OCTANOL_WATER_PARTITION_LOGP_OPERA_PRED>
2.70255

>  <MELTING_POINT_DEGC_OPERA_PRED>
71.0647

>  <VAPOR_PRESSURE_MMHG_OPERA_PRED>
4.91E-06

>  <WATER_SOLUBILITY_MOL/L_OPERA_PRED>
0.000258927

>  <Shape Index>
0.57895

>  <Molecular Flexibility>
0.37752

>  <Molecular Complexity>
0.78992

>  <Electronegative Atoms>
6

>  <Stereo Centers>
1

>  <Rotatable Bonds>
4

>  <Rings Closures>
2

>  <Aromatic Rings>
1

>  <Aromatic Atoms>
6

>  <Amides>
0

>  <Amines>
0

>  <Aromatic Nitrogens>
0

>  <Shape Index 2>
0.57895

>  <Molecular Flexibility 2>
0.37752

>  <Molecular Complexity 2>
0.78992

>  <Non-C/H Atoms>
6

>  <Electronegative Atoms 2>
6

>  <Stereo Centers 2>
1

>  <Rotatable Bonds 2>
4

>  <Rings Closures 2>
2

>  <Aromatic Rings 2>
1

>  <Aromatic Atoms 2>
6

>  <sp3-Atoms>
11

>  <Amides 2>
0

>  <Amines 2>
0

>  <Aromatic Nitrogens 2>
0

>  <Basic Nitrogens>
0

$$$$
Coumarin
Actelion Java MolfileCreator 2.0

  0  0  0  0  0  0              0 V3000
M  V30 BEGIN CTAB
M  V30 COUNTS 11 12 0 0 0
M  V30 BEGIN ATOM
M  V30 1 O 0.0 0.0 0.0 0
M  V30 2 C -1.3091 -0.7312 0.0 0
M  V30 3 O -2.6182 0.0235 0.0 0
M  V30 4 C -1.3208 -2.2172 0.0 0
M  V30 5 C -3.9273 -0.7076 0.0 0
M  V30 6 C -2.63 -2.9484 0.0 0
M  V30 7 C -3.9391 -2.1936 0.0 0
M  V30 8 C -5.2364 0.0471 0.0 0
M  V30 9 C -5.2482 -2.9248 0.0 0
M  V30 10 C -6.5455 -0.684 0.0 0
M  V30 11 C -6.5573 -2.17 0.0 0
M  V30 END ATOM
M  V30 BEGIN BOND
M  V30 1 2 1 2
M  V30 2 1 2 3
M  V30 3 1 2 4
M  V30 4 1 3 5
M  V30 5 2 4 6
M  V30 6 2 5 7
M  V30 7 1 5 8
M  V30 8 1 7 9
M  V30 9 2 8 10
M  V30 10 2 9 11
M  V30 11 1 6 7
M  V30 12 1 10 11
M  V30 END BOND
M  V30 END CTAB
M  END
>  <Molecule Name>
Coumarin

>  <Order (spectra)>
145

>  <NAME>
Coumarin

>  <Molecular Formula>
C9H6O2

>  <Monoisotopic Mass>
146.03678

>  <SMILES>
O=C1OC2=C(C=CC=C2)C=C1

>  <InChI>
InChI=1S/C9H6O2/c10-9-6-5-7-3-1-2-4-8(7)11-9/h1-6H

>  <InChIKey>
ZYGHJZDHTFUPRJ-UHFFFAOYSA-N

>  <Kingdom>
Organic compounds

>  <Superclass>
Phenylpropanoids and polyketides

>  <Class>
Coumarins and derivatives

>  <Subclass>


>  <Parent Level 1>
Coumarins and derivatives

>  <Parent Level 2>


>  <Parent Level 3>


>  <cLogP>
1.4974

>  <cLogS>
-2.37

>  <Druglikeness>
-3.3182

>  <NP-class probability>
-

>  <SmilesFragFp 3>


>  <MS_READY_SMILES>
O=C1OC2=C(C=CC=C2)C=C1

>  <MS_READY_InChI>
InChI=1S/C9H6O2/c10-9-6-5-7-3-1-2-4-8(7)11-9/h1-6H

>  <QSAR_READY_SMILES>
O=C1OC2=C(C=CC=C2)C=C1

>  <QSAR_READY_InChI>
InChI=1S/C9H6O2/c10-9-6-5-7-3-1-2-4-8(7)11-9/h1-6H

>  <DTXSID>
DTXSID7020348

>  <DTXCID>
DTXCID50348

>  <CASRN>
91-64-5

>  <EXPOCAST_MEDIAN_EXPOSURE_PREDICTION_MG/KG-BW/DAY>
1.13E-04

>  <BIOCONCENTRATION_FACTOR_TEST_PRED>
-

>  <BOILING_POINT_DEGC_TEST_PRED>
290.271

>  <48HR_DAPHNIA_LC50_MOL/L_TEST_PRED>
0.000300608

>  <DENSITY_G/CM^3_TEST_PRED>
1.178

>  <DEVTOX_TEST_PRED>
0.426

>  <96HR_FATHEAD_MINNOW_MOL/L_TEST_PRED>
0.000148252

>  <FLASH_POINT_DEGC_TEST_PRED>
147.014

>  <MELTING_POINT_DEGC_TEST_PRED>
80.903

>  <AMES_MUTAGENICITY_TEST_PRED>
0.385

>  <ORAL_RAT_LD50_MOL/KG_TEST_PRED>
0.00833681

>  <SURFACE_TENSION_DYN/CM_TEST_PRED>
-

>  <THERMAL_CONDUCTIVITY_MW/(M*K)_TEST_PRED>
-

>  <TETRAHYMENA_PYRIFORMIS_IGC50_MOL/L_TEST_PRED>
6.19E-05

>  <VISCOSITY_CP_CP_TEST_PRED>
3.38065

>  <VAPOR_PRESSURE_MMHG_TEST_PRED>
0.00484172

>  <WATER_SOLUBILITY_MOL/L_TEST_PRED>
0.0118577

>  <ATMOSPHERIC_HYDROXYLATION_RATE_(AOH)_CM3/MOLECULE*SEC_OPERA_PRED>
4.37E-11

>  <BIOCONCENTRATION_FACTOR_OPERA_PRED>
12.6501

>  <BIODEGRADATION_HALF_LIFE_DAYS_DAYS_OPERA_PRED>
3.5583

>  <BOILING_POINT_DEGC_OPERA_PRED>
301.611

>  <HENRYS_LAW_ATM-M3/MOLE_OPERA_PRED>
5.04E-08

>  <OPERA_KM_DAYS_OPERA_PRED>
0.164382

>  <OCTANOL_AIR_PARTITION_COEFF_LOGKOA_OPERA_PRED>
5.71935

>  <SOIL_ADSORPTION_COEFFICIENT_KOC_L/KG_OPERA_PRED>
267.381

>  <OCTANOL_WATER_PARTITION_LOGP_OPERA_PRED>
1.39143

>  <MELTING_POINT_DEGC_OPERA_PRED>
68.7105

>  <VAPOR_PRESSURE_MMHG_OPERA_PRED>
0.000979981

>  <WATER_SOLUBILITY_MOL/L_OPERA_PRED>
0.0145818

>  <Shape Index>
0.63636

>  <Molecular Flexibility>
0.13859

>  <Molecular Complexity>
0.67959

>  <Electronegative Atoms>
2

>  <Stereo Centers>
0

>  <Rotatable Bonds>
0

>  <Rings Closures>
2

>  <Aromatic Rings>
1

>  <Aromatic Atoms>
6

>  <Amides>
0

>  <Amines>
0

>  <Aromatic Nitrogens>
0

>  <Shape Index 2>
0.63636

>  <Molecular Flexibility 2>
0.13859

>  <Molecular Complexity 2>
0.67959

>  <Non-C/H Atoms>
2

>  <Electronegative Atoms 2>
2

>  <Stereo Centers 2>
0

>  <Rotatable Bonds 2>
0

>  <Rings Closures 2>
2

>  <Aromatic Rings 2>
1

>  <Aromatic Atoms 2>
6

>  <sp3-Atoms>
1

>  <Amides 2>
0

>  <Amines 2>
0

>  <Aromatic Nitrogens 2>
0

>  <Basic Nitrogens>
0

$$$$
Chlorferone
Actelion Java MolfileCreator 2.0

  0  0  0  0  0  0              0 V3000
M  V30 BEGIN CTAB
M  V30 COUNTS 14 15 0 0 0
M  V30 BEGIN ATOM
M  V30 1 Cl 0.0 0.0 0.0 0
M  V30 2 C -1.3112 -0.7324 0.0 0
M  V30 3 C -2.6225 0.0236 0.0 0
M  V30 4 C -1.323 -2.2208 0.0 0
M  V30 5 O -2.6343 1.5357 0.0 0
M  V30 6 O -3.9337 -0.7087 0.0 0
M  V30 7 C -2.6343 -2.9532 0.0 0
M  V30 8 C -0.0354 -2.9532 0.0 0
M  V30 9 C -3.9455 -2.1972 0.0 0
M  V30 10 C -2.6461 -4.4417 0.0 0
M  V30 11 C -5.2568 -2.9296 0.0 0
M  V30 12 C -3.9574 -5.1741 0.0 0
M  V30 13 C -5.2686 -4.4181 0.0 0
M  V30 14 O -6.5799 -5.1505 0.0 0
M  V30 END ATOM
M  V30 BEGIN BOND
M  V30 1 1 1 2
M  V30 2 1 2 3
M  V30 3 2 2 4
M  V30 4 2 3 5
M  V30 5 1 3 6
M  V30 6 1 4 7
M  V30 7 1 4 8
M  V30 8 1 6 9
M  V30 9 1 7 10
M  V30 10 1 9 11
M  V30 11 2 10 12
M  V30 12 2 11 13
M  V30 13 1 13 14
M  V30 14 2 7 9
M  V30 15 1 12 13
M  V30 END BOND
M  V30 END CTAB
M  END
>  <Molecule Name>
Chlorferone

>  <Order (spectra)>
200

>  <NAME>
Chlorferone

>  <Molecular Formula>
C10H7O3Cl

>  <Monoisotopic Mass>
210.008372

>  <SMILES>
CC1=C(Cl)C(=O)OC2=C1C=CC(O)=C2

>  <InChI>
InChI=1S/C10H7ClO3/c1-5-7-3-2-6(12)4-8(7)14-10(13)9(5)11/h2-4,12H,1H3

>  <InChIKey>
ODZHLDRQCZXQFQ-UHFFFAOYSA-N

>  <Kingdom>
Organic compounds

>  <Superclass>
Phenylpropanoids and polyketides

>  <Class>
Coumarins and derivatives

>  <Subclass>
Hydroxycoumarins

>  <Parent Level 1>
7-hydroxycoumarins

>  <Parent Level 2>


>  <Parent Level 3>


>  <cLogP>
1.6492

>  <cLogS>
-2.494

>  <Druglikeness>
-4.2346

>  <NP-class probability>
0.42

>  <SmilesFragFp 3>


>  <MS_READY_SMILES>
CC1=C(Cl)C(=O)OC2=C1C=CC(O)=C2

>  <MS_READY_InChI>
InChI=1S/C10H7ClO3/c1-5-7-3-2-6(12)4-8(7)14-10(13)9(5)11/h2-4,12H,1H3

>  <QSAR_READY_SMILES>
CC1=C(Cl)C(=O)OC2=C1C=CC(O)=C2

>  <QSAR_READY_InChI>
InChI=1S/C10H7ClO3/c1-5-7-3-2-6(12)4-8(7)14-10(13)9(5)11/h2-4,12H,1H3

>  <DTXSID>
DTXSID8052724

>  <DTXCID>
DTXCID8031314

>  <CASRN>
6174-86-3

>  <EXPOCAST_MEDIAN_EXPOSURE_PREDICTION_MG/KG-BW/DAY>
5.91E-07

>  <BIOCONCENTRATION_FACTOR_TEST_PRED>
-

>  <BOILING_POINT_DEGC_TEST_PRED>
335.525

>  <48HR_DAPHNIA_LC50_MOL/L_TEST_PRED>
4.62E-05

>  <DENSITY_G/CM^3_TEST_PRED>
1.452

>  <DEVTOX_TEST_PRED>
0.903

>  <96HR_FATHEAD_MINNOW_MOL/L_TEST_PRED>
0.000117761

>  <FLASH_POINT_DEGC_TEST_PRED>
168.177

>  <MELTING_POINT_DEGC_TEST_PRED>
139.362

>  <AMES_MUTAGENICITY_TEST_PRED>
-0.05

>  <ORAL_RAT_LD50_MOL/KG_TEST_PRED>
-

>  <SURFACE_TENSION_DYN/CM_TEST_PRED>
-

>  <THERMAL_CONDUCTIVITY_MW/(M*K)_TEST_PRED>
-

>  <TETRAHYMENA_PYRIFORMIS_IGC50_MOL/L_TEST_PRED>
5.42E-05

>  <VISCOSITY_CP_CP_TEST_PRED>
29.7167

>  <VAPOR_PRESSURE_MMHG_TEST_PRED>
-

>  <WATER_SOLUBILITY_MOL/L_TEST_PRED>
-

>  <ATMOSPHERIC_HYDROXYLATION_RATE_(AOH)_CM3/MOLECULE*SEC_OPERA_PRED>
1.32E-11

>  <BIOCONCENTRATION_FACTOR_OPERA_PRED>
8.70919

>  <BIODEGRADATION_HALF_LIFE_DAYS_DAYS_OPERA_PRED>
3.34274

>  <BOILING_POINT_DEGC_OPERA_PRED>
319.687

>  <HENRYS_LAW_ATM-M3/MOLE_OPERA_PRED>
5.16E-10

>  <OPERA_KM_DAYS_OPERA_PRED>
0.0764079

>  <OCTANOL_AIR_PARTITION_COEFF_LOGKOA_OPERA_PRED>
9.25805

>  <SOIL_ADSORPTION_COEFFICIENT_KOC_L/KG_OPERA_PRED>
6081.45

>  <OCTANOL_WATER_PARTITION_LOGP_OPERA_PRED>
1.08194

>  <MELTING_POINT_DEGC_OPERA_PRED>
207.507

>  <VAPOR_PRESSURE_MMHG_OPERA_PRED>
4.69E-07

>  <WATER_SOLUBILITY_MOL/L_OPERA_PRED>
0.00223603

>  <Shape Index>
0.57143

>  <Molecular Flexibility>
0.085868

>  <Molecular Complexity>
0.75107

>  <Electronegative Atoms>
4

>  <Stereo Centers>
0

>  <Rotatable Bonds>
0

>  <Rings Closures>
2

>  <Aromatic Rings>
1

>  <Aromatic Atoms>
6

>  <Amides>
0

>  <Amines>
0

>  <Aromatic Nitrogens>
0

>  <Shape Index 2>
0.57143

>  <Molecular Flexibility 2>
0.085868

>  <Molecular Complexity 2>
0.75107

>  <Non-C/H Atoms>
4

>  <Electronegative Atoms 2>
4

>  <Stereo Centers 2>
0

>  <Rotatable Bonds 2>
0

>  <Rings Closures 2>
2

>  <Aromatic Rings 2>
1

>  <Aromatic Atoms 2>
6

>  <sp3-Atoms>
3

>  <Amides 2>
0

>  <Amines 2>
0

>  <Aromatic Nitrogens 2>
0

>  <Basic Nitrogens>
0

$$$$
Fenazaquin
Actelion Java MolfileCreator 2.0

  0  0  0  0  0  0              0 V3000
M  V30 BEGIN CTAB
M  V30 COUNTS 23 25 0 0 0
M  V30 BEGIN ATOM
M  V30 1 O 0.0 0.0 0.0 0
M  V30 2 C 1.288 -0.7444 0.0 0
M  V30 3 C -1.3116 -0.7444 0.0 0
M  V30 4 N 1.2762 -2.2333 0.0 0
M  V30 5 C 2.576 0.0118 0.0 0
M  V30 6 C -2.6233 0.0118 0.0 0
M  V30 7 C 2.5642 -2.9778 0.0 0
M  V30 8 C 3.8641 -0.7326 0.0 0
M  V30 9 C 2.5642 1.5243 0.0 0
M  V30 10 C -3.935 -0.7326 0.0 0
M  V30 11 N 3.8522 -2.2215 0.0 0
M  V30 12 C 5.1521 0.0236 0.0 0
M  V30 13 C 3.8522 2.2806 0.0 0
M  V30 14 C -5.2466 0.0236 0.0 0
M  V30 15 C -3.9468 -2.2215 0.0 0
M  V30 16 C 5.1403 1.5361 0.0 0
M  V30 17 C -6.5583 -0.709 0.0 0
M  V30 18 C -5.2585 -2.966 0.0 0
M  V30 19 C -6.5701 -2.1979 0.0 0
M  V30 20 C -7.8818 -2.9424 0.0 0
M  V30 21 C -7.1373 -4.2304 0.0 0
M  V30 22 C -9.1935 -3.6868 0.0 0
M  V30 23 C -8.6381 -1.6307 0.0 0
M  V30 END ATOM
M  V30 BEGIN BOND
M  V30 1 1 1 2
M  V30 2 1 1 3
M  V30 3 2 2 4
M  V30 4 1 2 5
M  V30 5 1 3 6
M  V30 6 1 4 7
M  V30 7 1 5 8
M  V30 8 2 5 9
M  V30 9 1 6 10
M  V30 10 2 7 11
M  V30 11 2 8 12
M  V30 12 1 9 13
M  V30 13 2 10 14
M  V30 14 1 10 15
M  V30 15 1 12 16
M  V30 16 1 14 17
M  V30 17 2 15 18
M  V30 18 2 17 19
M  V30 19 1 19 20
M  V30 20 1 20 21
M  V30 21 1 20 22
M  V30 22 1 20 23
M  V30 23 1 8 11
M  V30 24 2 13 16
M  V30 25 1 18 19
M  V30 END BOND
M  V30 END CTAB
M  END
>  <Molecule Name>
Fenazaquin

>  <Order (spectra)>
304

>  <NAME>
Fenazaquin

>  <Molecular Formula>
C20H22N2O

>  <Monoisotopic Mass>
306.173213

>  <SMILES>
CC(C)(C)C1=CC=C(CCOC2=NC=NC3=C2C=CC=C3)C=C1

>  <InChI>
InChI=1S/C20H22N2O/c1-20(2,3)16-10-8-15(9-11-16)12-13-23-19-17-6-4-5-7-18(17)21-14-22-19/h4-11,14H,12-13H2,1-3H3

>  <InChIKey>
DMYHGDXADUDKCQ-UHFFFAOYSA-N

>  <Kingdom>
Organic compounds

>  <Superclass>
Organoheterocyclic compounds

>  <Class>
Diazanaphthalenes

>  <Subclass>
Benzodiazines

>  <Parent Level 1>
Quinazolines

>  <Parent Level 2>


>  <Parent Level 3>


>  <cLogP>
5.1248

>  <cLogS>
-5.251

>  <Druglikeness>
-5.2687

>  <NP-class probability>
0.17

>  <SmilesFragFp 3>


>  <MS_READY_SMILES>
CC(C)(C)C1=CC=C(CCOC2=NC=NC3=C2C=CC=C3)C=C1

>  <MS_READY_InChI>
InChI=1S/C20H22N2O/c1-20(2,3)16-10-8-15(9-11-16)12-13-23-19-17-6-4-5-7-18(17)21-14-22-19/h4-11,14H,12-13H2,1-3H3

>  <QSAR_READY_SMILES>
CC(C)(C)C1=CC=C(CCOC2=NC=NC3=C2C=CC=C3)C=C1

>  <QSAR_READY_InChI>
InChI=1S/C20H22N2O/c1-20(2,3)16-10-8-15(9-11-16)12-13-23-19-17-6-4-5-7-18(17)21-14-22-19/h4-11,14H,12-13H2,1-3H3

>  <DTXSID>
DTXSID4040476

>  <DTXCID>
DTXCID2020476

>  <CASRN>
120928-09-8

>  <EXPOCAST_MEDIAN_EXPOSURE_PREDICTION_MG/KG-BW/DAY>
2.57E-06

>  <BIOCONCENTRATION_FACTOR_TEST_PRED>
387.258

>  <BOILING_POINT_DEGC_TEST_PRED>
376.527

>  <48HR_DAPHNIA_LC50_MOL/L_TEST_PRED>
4.80E-06

>  <DENSITY_G/CM^3_TEST_PRED>
1.125

>  <DEVTOX_TEST_PRED>
0.69

>  <96HR_FATHEAD_MINNOW_MOL/L_TEST_PRED>
2.10E-06

>  <FLASH_POINT_DEGC_TEST_PRED>
198.427

>  <MELTING_POINT_DEGC_TEST_PRED>
105.84

>  <AMES_MUTAGENICITY_TEST_PRED>
0.139

>  <ORAL_RAT_LD50_MOL/KG_TEST_PRED>
0.00174181

>  <SURFACE_TENSION_DYN/CM_TEST_PRED>
42.812

>  <THERMAL_CONDUCTIVITY_MW/(M*K)_TEST_PRED>
127.142

>  <TETRAHYMENA_PYRIFORMIS_IGC50_MOL/L_TEST_PRED>
4.35E-06

>  <VISCOSITY_CP_CP_TEST_PRED>
-

>  <VAPOR_PRESSURE_MMHG_TEST_PRED>
5.53E-08

>  <WATER_SOLUBILITY_MOL/L_TEST_PRED>
2.29E-06

>  <ATMOSPHERIC_HYDROXYLATION_RATE_(AOH)_CM3/MOLECULE*SEC_OPERA_PRED>
1.74E-11

>  <BIOCONCENTRATION_FACTOR_OPERA_PRED>
345.288

>  <BIODEGRADATION_HALF_LIFE_DAYS_DAYS_OPERA_PRED>
18.6288

>  <BOILING_POINT_DEGC_OPERA_PRED>
353.083

>  <HENRYS_LAW_ATM-M3/MOLE_OPERA_PRED>
1.35E-06

>  <OPERA_KM_DAYS_OPERA_PRED>
3.53741

>  <OCTANOL_AIR_PARTITION_COEFF_LOGKOA_OPERA_PRED>
10.319

>  <SOIL_ADSORPTION_COEFFICIENT_KOC_L/KG_OPERA_PRED>
1942.91

>  <OCTANOL_WATER_PARTITION_LOGP_OPERA_PRED>
5.50625

>  <MELTING_POINT_DEGC_OPERA_PRED>
78.578

>  <VAPOR_PRESSURE_MMHG_OPERA_PRED>
2.55E-08

>  <WATER_SOLUBILITY_MOL/L_OPERA_PRED>
4.89E-07

>  <Shape Index>
0.6087

>  <Molecular Flexibility>
0.44464

>  <Molecular Complexity>
0.72323

>  <Electronegative Atoms>
3

>  <Stereo Centers>
0

>  <Rotatable Bonds>
5

>  <Rings Closures>
3

>  <Aromatic Rings>
3

>  <Aromatic Atoms>
16

>  <Amides>
0

>  <Amines>
0

>  <Aromatic Nitrogens>
2

>  <Shape Index 2>
0.6087

>  <Molecular Flexibility 2>
0.44464

>  <Molecular Complexity 2>
0.72323

>  <Non-C/H Atoms>
3

>  <Electronegative Atoms 2>
3

>  <Stereo Centers 2>
0

>  <Rotatable Bonds 2>
5

>  <Rings Closures 2>
3

>  <Aromatic Rings 2>
3

>  <Aromatic Atoms 2>
16

>  <sp3-Atoms>
7

>  <Amides 2>
0

>  <Amines 2>
0

>  <Aromatic Nitrogens 2>
2

>  <Basic Nitrogens>
0

$$$$
Fluquinconazole
Actelion Java MolfileCreator 2.0

  0  0  0  0  0  0              0 V3000
M  V30 BEGIN CTAB
M  V30 COUNTS 25 28 0 0 0
M  V30 BEGIN ATOM
M  V30 1 Cl 0.0 0.0 0.0 0
M  V30 2 C 1.2896 -0.7335 0.0 0
M  V30 3 C 2.5793 0.0236 0.0 0
M  V30 4 C 1.2778 -2.2244 0.0 0
M  V30 5 N 2.5675 1.5381 0.0 0
M  V30 6 C 3.869 -0.7099 0.0 0
M  V30 7 C 2.5675 -2.9579 0.0 0
M  V30 8 C 3.8572 2.2953 0.0 0
M  V30 9 C 1.2541 2.2953 0.0 0
M  V30 10 C 3.8572 -2.2007 0.0 0
M  V30 11 Cl 2.5556 -4.4488 0.0 0
M  V30 12 N 3.8453 3.8098 0.0 0
M  V30 13 N 5.1468 1.5618 0.0 0
M  V30 14 O -0.0591 1.5618 0.0 0
M  V30 15 C 1.2423 3.8098 0.0 0
M  V30 16 C 2.532 4.5671 0.0 0
M  V30 17 N 5.2888 0.0828 0.0 0
M  V30 18 C 6.5075 2.1889 0.0 0
M  V30 19 C -0.0709 4.5671 0.0 0
M  V30 20 C 2.5202 6.0816 0.0 0
M  V30 21 C 6.7442 -0.2129 0.0 0
M  V30 22 N 7.5014 1.0885 0.0 0
M  V30 23 C -0.0828 6.0816 0.0 0
M  V30 24 C 1.2068 6.8388 0.0 0
M  V30 25 F -1.3961 6.8388 0.0 0
M  V30 END ATOM
M  V30 BEGIN BOND
M  V30 1 1 1 2
M  V30 2 2 2 3
M  V30 3 1 2 4
M  V30 4 1 3 5
M  V30 5 1 3 6
M  V30 6 2 4 7
M  V30 7 1 5 8
M  V30 8 1 5 9
M  V30 9 2 6 10
M  V30 10 1 7 11
M  V30 11 2 8 12
M  V30 12 1 8 13
M  V30 13 2 9 14
M  V30 14 1 9 15
M  V30 15 1 12 16
M  V30 16 1 13 17
M  V30 17 1 13 18
M  V30 18 1 15 19
M  V30 19 1 16 20
M  V30 20 2 17 21
M  V30 21 2 18 22
M  V30 22 2 19 23
M  V30 23 2 20 24
M  V30 24 1 23 25
M  V30 25 1 7 10
M  V30 26 2 15 16
M  V30 27 1 21 22
M  V30 28 1 23 24
M  V30 END BOND
M  V30 END CTAB
M  END
>  <Molecule Name>
Fluquinconazole

>  <Order (spectra)>
343

>  <NAME>
Fluquinconazole

>  <Molecular Formula>
C16H8N5OCl2F

>  <Monoisotopic Mass>
375.008992

>  <SMILES>
FC1=CC2=C(C=C1)N=C(N1C=NC=N1)N(C2=O)C1=C(Cl)C=C(Cl)C=C1

>  <InChI>
InChI=1S/C16H8Cl2FN5O/c17-9-1-4-14(12(18)5-9)24-15(25)11-6-10(19)2-3-13(11)22-16(24)23-8-20-7-21-23/h1-8H

>  <InChIKey>
IJJVMEJXYNJXOJ-UHFFFAOYSA-N

>  <Kingdom>
Organic compounds

>  <Superclass>
Organoheterocyclic compounds

>  <Class>
Diazanaphthalenes

>  <Subclass>
Benzodiazines

>  <Parent Level 1>
Quinazolines

>  <Parent Level 2>
Quinazolinamines

>  <Parent Level 3>


>  <cLogP>
3.9446

>  <cLogS>
-6.248

>  <Druglikeness>
3.1469

>  <NP-class probability>
0.01

>  <SmilesFragFp 3>


>  <MS_READY_SMILES>
FC1=CC2=C(C=C1)N=C(N1C=NC=N1)N(C2=O)C1=C(Cl)C=C(Cl)C=C1

>  <MS_READY_InChI>
InChI=1S/C16H8Cl2FN5O/c17-9-1-4-14(12(18)5-9)24-15(25)11-6-10(19)2-3-13(11)22-16(24)23-8-20-7-21-23/h1-8H

>  <QSAR_READY_SMILES>
FC1=CC2=C(C=C1)N=C(N1C=NC=N1)N(C2=O)C1=C(Cl)C=C(Cl)C=C1

>  <QSAR_READY_InChI>
InChI=1S/C16H8Cl2FN5O/c17-9-1-4-14(12(18)5-9)24-15(25)11-6-10(19)2-3-13(11)22-16(24)23-8-20-7-21-23/h1-8H

>  <DTXSID>
DTXSID5057965

>  <DTXCID>
DTXCID3031733

>  <CASRN>
136426-54-5

>  <EXPOCAST_MEDIAN_EXPOSURE_PREDICTION_MG/KG-BW/DAY>
1.66E-07

>  <BIOCONCENTRATION_FACTOR_TEST_PRED>
71.1214

>  <BOILING_POINT_DEGC_TEST_PRED>
-

>  <48HR_DAPHNIA_LC50_MOL/L_TEST_PRED>
1.85E-05

>  <DENSITY_G/CM^3_TEST_PRED>
1.593

>  <DEVTOX_TEST_PRED>
0.92

>  <96HR_FATHEAD_MINNOW_MOL/L_TEST_PRED>
-

>  <FLASH_POINT_DEGC_TEST_PRED>
292.132

>  <MELTING_POINT_DEGC_TEST_PRED>
179.576

>  <AMES_MUTAGENICITY_TEST_PRED>
0.622

>  <ORAL_RAT_LD50_MOL/KG_TEST_PRED>
0.00440555

>  <SURFACE_TENSION_DYN/CM_TEST_PRED>
-

>  <THERMAL_CONDUCTIVITY_MW/(M*K)_TEST_PRED>
-

>  <TETRAHYMENA_PYRIFORMIS_IGC50_MOL/L_TEST_PRED>
-

>  <VISCOSITY_CP_CP_TEST_PRED>
-

>  <VAPOR_PRESSURE_MMHG_TEST_PRED>
2.21E-09

>  <WATER_SOLUBILITY_MOL/L_TEST_PRED>
5.69E-06

>  <ATMOSPHERIC_HYDROXYLATION_RATE_(AOH)_CM3/MOLECULE*SEC_OPERA_PRED>
1.38E-11

>  <BIOCONCENTRATION_FACTOR_OPERA_PRED>
83.2024

>  <BIODEGRADATION_HALF_LIFE_DAYS_DAYS_OPERA_PRED>
3.35679

>  <BOILING_POINT_DEGC_OPERA_PRED>
328.058

>  <HENRYS_LAW_ATM-M3/MOLE_OPERA_PRED>
2.07E-11

>  <OPERA_KM_DAYS_OPERA_PRED>
0.949324

>  <OCTANOL_AIR_PARTITION_COEFF_LOGKOA_OPERA_PRED>
11.7056

>  <SOIL_ADSORPTION_COEFFICIENT_KOC_L/KG_OPERA_PRED>
716.036

>  <OCTANOL_WATER_PARTITION_LOGP_OPERA_PRED>
3.23757

>  <MELTING_POINT_DEGC_OPERA_PRED>
191.954

>  <VAPOR_PRESSURE_MMHG_OPERA_PRED>
4.83E-11

>  <WATER_SOLUBILITY_MOL/L_OPERA_PRED>
2.87E-06

>  <Shape Index>
0.44

>  <Molecular Flexibility>
0.27489

>  <Molecular Complexity>
0.92681

>  <Electronegative Atoms>
9

>  <Stereo Centers>
0

>  <Rotatable Bonds>
2

>  <Rings Closures>
4

>  <Aromatic Rings>
3

>  <Aromatic Atoms>
17

>  <Amides>
1

>  <Amines>
0

>  <Aromatic Nitrogens>
3

>  <Shape Index 2>
0.44

>  <Molecular Flexibility 2>
0.27489

>  <Molecular Complexity 2>
0.92681

>  <Non-C/H Atoms>
9

>  <Electronegative Atoms 2>
9

>  <Stereo Centers 2>
0

>  <Rotatable Bonds 2>
2

>  <Rings Closures 2>
4

>  <Aromatic Rings 2>
3

>  <Aromatic Atoms 2>
17

>  <sp3-Atoms>
0

>  <Amides 2>
1

>  <Amines 2>
0

>  <Aromatic Nitrogens 2>
3

>  <Basic Nitrogens>
1

$$$$
Bupirimate
Actelion Java MolfileCreator 2.0

  0  0  0  0  0  0              0 V3000
M  V30 BEGIN CTAB
M  V30 COUNTS 21 21 0 0 0
M  V30 BEGIN ATOM
M  V30 1 S 0.0 0.0 0.0 0
M  V30 2 O -0.7569 -1.2892 0.0 0
M  V30 3 O 0.7451 -1.2892 0.0 0
M  V30 4 O 1.2892 0.7569 0.0 0
M  V30 5 N -1.3128 0.7569 0.0 0
M  V30 6 C 2.5784 0.0118 0.0 0
M  V30 7 C -1.3246 2.2708 0.0 0
M  V30 8 C -2.6257 0.0118 0.0 0
M  V30 9 N 2.5665 -1.4784 0.0 0
M  V30 10 C 3.8676 0.7687 0.0 0
M  V30 11 C 3.8557 -2.2235 0.0 0
M  V30 12 C 5.1568 0.0236 0.0 0
M  V30 13 C 3.8557 2.2827 0.0 0
M  V30 14 N 5.1449 -1.4666 0.0 0
M  V30 15 N 3.8439 -3.7138 0.0 0
M  V30 16 C 6.446 0.7806 0.0 0
M  V30 17 C 2.5429 3.0396 0.0 0
M  V30 18 C 2.5311 -4.4589 0.0 0
M  V30 19 C 2.5311 4.5536 0.0 0
M  V30 20 C 2.5192 -5.9492 0.0 0
M  V30 21 C 1.2182 5.3105 0.0 0
M  V30 END ATOM
M  V30 BEGIN BOND
M  V30 1 2 1 2
M  V30 2 2 1 3
M  V30 3 1 1 4
M  V30 4 1 1 5
M  V30 5 1 4 6
M  V30 6 1 5 7
M  V30 7 1 5 8
M  V30 8 2 6 9
M  V30 9 1 6 10
M  V30 10 1 9 11
M  V30 11 2 10 12
M  V30 12 1 10 13
M  V30 13 2 11 14
M  V30 14 1 11 15
M  V30 15 1 12 16
M  V30 16 1 13 17
M  V30 17 1 15 18
M  V30 18 1 17 19
M  V30 19 1 18 20
M  V30 20 1 19 21
M  V30 21 1 12 14
M  V30 END BOND
M  V30 END CTAB
M  END
>  <Molecule Name>
Bupirimate

>  <Order (spectra)>
313

>  <NAME>
Bupirimate

>  <Molecular Formula>
C13H24N4O3S

>  <Monoisotopic Mass>
316.156911

>  <SMILES>
CCCCC1=C(OS(=O)(=O)N(C)C)N=C(NCC)N=C1C

>  <InChI>
InChI=1S/C13H24N4O3S/c1-6-8-9-11-10(3)15-13(14-7-2)16-12(11)20-21(18,19)17(4)5/h6-9H2,1-5H3,(H,14,15,16)

>  <InChIKey>
DSKJPMWIHSOYEA-UHFFFAOYSA-N

>  <Kingdom>
Organic compounds

>  <Superclass>
Organoheterocyclic compounds

>  <Class>
Diazines

>  <Subclass>
Pyrimidines and pyrimidine derivatives

>  <Parent Level 1>
Aminopyrimidines and derivatives

>  <Parent Level 2>


>  <Parent Level 3>


>  <cLogP>
2.423

>  <cLogS>
-2.74

>  <Druglikeness>
-5.0831

>  <NP-class probability>
0.1

>  <SmilesFragFp 3>


>  <MS_READY_SMILES>
CCCCC1=C(OS(=O)(=O)N(C)C)N=C(NCC)N=C1C

>  <MS_READY_InChI>
InChI=1S/C13H24N4O3S/c1-6-8-9-11-10(3)15-13(14-7-2)16-12(11)20-21(18,19)17(4)5/h6-9H2,1-5H3,(H,14,15,16)

>  <QSAR_READY_SMILES>
CCCCC1=C(OS(=O)(=O)N(C)C)N=C(NCC)N=C1C

>  <QSAR_READY_InChI>
InChI=1S/C13H24N4O3S/c1-6-8-9-11-10(3)15-13(14-7-2)16-12(11)20-21(18,19)17(4)5/h6-9H2,1-5H3,(H,14,15,16)

>  <DTXSID>
DTXSID6041688

>  <DTXCID>
DTXCID4021688

>  <CASRN>
41483-43-6

>  <EXPOCAST_MEDIAN_EXPOSURE_PREDICTION_MG/KG-BW/DAY>
7.14E-07

>  <BIOCONCENTRATION_FACTOR_TEST_PRED>
-

>  <BOILING_POINT_DEGC_TEST_PRED>
-

>  <48HR_DAPHNIA_LC50_MOL/L_TEST_PRED>
9.46E-05

>  <DENSITY_G/CM^3_TEST_PRED>
1.296

>  <DEVTOX_TEST_PRED>
0.969

>  <96HR_FATHEAD_MINNOW_MOL/L_TEST_PRED>
7.55E-06

>  <FLASH_POINT_DEGC_TEST_PRED>
220.404

>  <MELTING_POINT_DEGC_TEST_PRED>
116.497

>  <AMES_MUTAGENICITY_TEST_PRED>
0.352

>  <ORAL_RAT_LD50_MOL/KG_TEST_PRED>
0.00148252

>  <SURFACE_TENSION_DYN/CM_TEST_PRED>
-

>  <THERMAL_CONDUCTIVITY_MW/(M*K)_TEST_PRED>
-

>  <TETRAHYMENA_PYRIFORMIS_IGC50_MOL/L_TEST_PRED>
-

>  <VISCOSITY_CP_CP_TEST_PRED>
-

>  <VAPOR_PRESSURE_MMHG_TEST_PRED>
3.13E-07

>  <WATER_SOLUBILITY_MOL/L_TEST_PRED>
0.000659174

>  <ATMOSPHERIC_HYDROXYLATION_RATE_(AOH)_CM3/MOLECULE*SEC_OPERA_PRED>
1.76E-11

>  <BIOCONCENTRATION_FACTOR_OPERA_PRED>
1.6905

>  <BIODEGRADATION_HALF_LIFE_DAYS_DAYS_OPERA_PRED>
3.65196

>  <BOILING_POINT_DEGC_OPERA_PRED>
349.367

>  <HENRYS_LAW_ATM-M3/MOLE_OPERA_PRED>
3.08E-10

>  <OPERA_KM_DAYS_OPERA_PRED>
0.774304

>  <OCTANOL_AIR_PARTITION_COEFF_LOGKOA_OPERA_PRED>
10.6659

>  <SOIL_ADSORPTION_COEFFICIENT_KOC_L/KG_OPERA_PRED>
298.805

>  <OCTANOL_WATER_PARTITION_LOGP_OPERA_PRED>
2.7003

>  <MELTING_POINT_DEGC_OPERA_PRED>
50.6255

>  <VAPOR_PRESSURE_MMHG_OPERA_PRED>
7.48E-07

>  <WATER_SOLUBILITY_MOL/L_OPERA_PRED>
6.12E-05

>  <Shape Index>
0.52381

>  <Molecular Flexibility>
0.61604

>  <Molecular Complexity>
0.79977

>  <Electronegative Atoms>
8

>  <Stereo Centers>
0

>  <Rotatable Bonds>
7

>  <Rings Closures>
1

>  <Aromatic Rings>
1

>  <Aromatic Atoms>
6

>  <Amides>
1

>  <Amines>
0

>  <Aromatic Nitrogens>
2

>  <Shape Index 2>
0.52381

>  <Molecular Flexibility 2>
0.61604

>  <Molecular Complexity 2>
0.79977

>  <Non-C/H Atoms>
8

>  <Electronegative Atoms 2>
8

>  <Stereo Centers 2>
0

>  <Rotatable Bonds 2>
7

>  <Rings Closures 2>
1

>  <Aromatic Rings 2>
1

>  <Aromatic Atoms 2>
6

>  <sp3-Atoms>
11

>  <Amides 2>
1

>  <Amines 2>
0

>  <Aromatic Nitrogens 2>
2

>  <Basic Nitrogens>
0

$$$$
cis-Prallethrin
Actelion Java MolfileCreator 2.0

  0  0  0  0  0  0              0 V3000
M  V30 BEGIN CTAB
M  V30 COUNTS 22 23 0 0 0
M  V30 BEGIN ATOM
M  V30 1 O 0.0 0.0 0.0 0
M  V30 2 C -1.4927 0.1645 0.0 0
M  V30 3 C -2.245 1.4692 0.0 0
M  V30 4 C -2.5036 -0.9285 0.0 0
M  V30 5 C -3.7143 1.1754 0.0 0
M  V30 6 C -1.6455 2.8445 0.0 0
M  V30 7 C -3.8788 -0.3056 0.0 0
M  V30 8 C -4.8309 2.1862 0.0 0
M  V30 9 C -2.5388 4.0669 0.0 0
M  V30 10 O -5.1835 -1.0461 0.0 0
M  V30 11 C -3.4322 5.2893 0.0 0
M  V30 12 C -6.4882 -0.2938 0.0 0
M  V30 13 O -6.5 1.2106 0.0 0
M  V30 14 C -7.7929 -1.0343 0.0 0
M  V30 15 C -9.2975 -1.0226 0.0 0
M  V30 16 C -8.5452 -2.3155 0.0 0
M  V30 17 C -10.0497 0.282 0.0 0
M  V30 18 C -10.802 -1.0108 0.0 0
M  V30 19 C -8.557 -3.7965 0.0 0
M  V30 20 C -9.8617 -4.5253 0.0 0
M  V30 21 C -11.1664 -3.773 0.0 0
M  V30 22 C -9.8734 -6.0063 0.0 0
M  V30 END ATOM
M  V30 BEGIN BOND
M  V30 1 2 1 2
M  V30 2 1 2 3
M  V30 3 1 2 4
M  V30 4 2 3 5
M  V30 5 1 3 6
M  V30 6 1 4 7
M  V30 7 1 5 8
M  V30 8 1 6 9
M  V30 9 1 7 10
M  V30 10 3 9 11
M  V30 11 1 10 12
M  V30 12 2 12 13
M  V30 13 1 12 14
M  V30 14 1 14 15
M  V30 15 1 14 16
M  V30 16 1 15 17
M  V30 17 1 15 18
M  V30 18 1 16 19
M  V30 19 2 19 20
M  V30 20 1 20 21
M  V30 21 1 20 22
M  V30 22 1 5 7
M  V30 23 1 15 16
M  V30 END BOND
M  V30 END CTAB
M  END
>  <Molecule Name>
cis-Prallethrin

>  <Order (spectra)>
73

>  <NAME>
cis-Prallethrin

>  <Molecular Formula>
C19H24O3

>  <Monoisotopic Mass>
300.172545

>  <SMILES>
CC(C)=CC1C(C(=O)OC2CC(=O)C(CC#C)=C2C)C1(C)C

>  <InChI>
InChI=1S/C19H24O3/c1-7-8-13-12(4)16(10-15(13)20)22-18(21)17-14(9-11(2)3)19(17,5)6/h1,9,14,16-17H,8,10H2,2-6H3

>  <InChIKey>
SMKRKQBMYOFFMU-UHFFFAOYSA-N

>  <Kingdom>
Organic compounds

>  <Superclass>
Lipids and lipid-like molecules

>  <Class>
Fatty Acyls

>  <Subclass>
Fatty acid esters

>  <Parent Level 1>
Pyrethroids

>  <Parent Level 2>


>  <Parent Level 3>


>  <cLogP>
3.7656

>  <cLogS>
-3.606

>  <Druglikeness>
-0.48597

>  <NP-class probability>
0.32

>  <SmilesFragFp 3>


>  <MS_READY_SMILES>
CC(C)=CC1C(C(=O)OC2CC(=O)C(CC#C)=C2C)C1(C)C

>  <MS_READY_InChI>
InChI=1S/C19H24O3/c1-7-8-13-12(4)16(10-15(13)20)22-18(21)17-14(9-11(2)3)19(17,5)6/h1,9,14,16-17H,8,10H2,2-6H3

>  <QSAR_READY_SMILES>
CC(C)=CC1C(C(=O)OC2CC(=O)C(CC#C)=C2C)C1(C)C

>  <QSAR_READY_InChI>
InChI=1S/C19H24O3/c1-7-8-13-12(4)16(10-15(13)20)22-18(21)17-14(9-11(2)3)19(17,5)6/h1,9,14,16-17H,8,10H2,2-6H3

>  <DTXSID>
DTXSID0032572

>  <DTXCID>
DTXCID10196509

>  <CASRN>
23031-36-9

>  <EXPOCAST_MEDIAN_EXPOSURE_PREDICTION_MG/KG-BW/DAY>
1.82E-07

>  <BIOCONCENTRATION_FACTOR_TEST_PRED>
-

>  <BOILING_POINT_DEGC_TEST_PRED>
317.889

>  <48HR_DAPHNIA_LC50_MOL/L_TEST_PRED>
-

>  <DENSITY_G/CM^3_TEST_PRED>
1.046

>  <DEVTOX_TEST_PRED>
0.741

>  <96HR_FATHEAD_MINNOW_MOL/L_TEST_PRED>
1.31E-07

>  <FLASH_POINT_DEGC_TEST_PRED>
166.305

>  <MELTING_POINT_DEGC_TEST_PRED>
88.487

>  <AMES_MUTAGENICITY_TEST_PRED>
-

>  <ORAL_RAT_LD50_MOL/KG_TEST_PRED>
0.00647143

>  <SURFACE_TENSION_DYN/CM_TEST_PRED>
37.58

>  <THERMAL_CONDUCTIVITY_MW/(M*K)_TEST_PRED>
-

>  <TETRAHYMENA_PYRIFORMIS_IGC50_MOL/L_TEST_PRED>
-

>  <VISCOSITY_CP_CP_TEST_PRED>
-

>  <VAPOR_PRESSURE_MMHG_TEST_PRED>
7.59E-07

>  <WATER_SOLUBILITY_MOL/L_TEST_PRED>
2.65E-05

>  <ATMOSPHERIC_HYDROXYLATION_RATE_(AOH)_CM3/MOLECULE*SEC_OPERA_PRED>
1.82E-10

>  <BIOCONCENTRATION_FACTOR_OPERA_PRED>
28.1497

>  <BIODEGRADATION_HALF_LIFE_DAYS_DAYS_OPERA_PRED>
3.34736

>  <BOILING_POINT_DEGC_OPERA_PRED>
342.916

>  <HENRYS_LAW_ATM-M3/MOLE_OPERA_PRED>
0.000013277

>  <OPERA_KM_DAYS_OPERA_PRED>
0.255998

>  <OCTANOL_AIR_PARTITION_COEFF_LOGKOA_OPERA_PRED>
8.89748

>  <SOIL_ADSORPTION_COEFFICIENT_KOC_L/KG_OPERA_PRED>
744.018

>  <OCTANOL_WATER_PARTITION_LOGP_OPERA_PRED>
4.48975

>  <MELTING_POINT_DEGC_OPERA_PRED>
67.3809

>  <VAPOR_PRESSURE_MMHG_OPERA_PRED>
7.55E-06

>  <WATER_SOLUBILITY_MOL/L_OPERA_PRED>
2.66E-05

>  <Shape Index>
0.59091

>  <Molecular Flexibility>
0.40025

>  <Molecular Complexity>
0.79161

>  <Electronegative Atoms>
3

>  <Stereo Centers>
3

>  <Rotatable Bonds>
5

>  <Rings Closures>
2

>  <Aromatic Rings>
0

>  <Aromatic Atoms>
0

>  <Amides>
0

>  <Amines>
0

>  <Aromatic Nitrogens>
0

>  <Shape Index 2>
0.59091

>  <Molecular Flexibility 2>
0.40025

>  <Molecular Complexity 2>
0.79161

>  <Non-C/H Atoms>
3

>  <Electronegative Atoms 2>
3

>  <Stereo Centers 2>
3

>  <Rotatable Bonds 2>
5

>  <Rings Closures 2>
2

>  <Aromatic Rings 2>
0

>  <Aromatic Atoms 2>
0

>  <sp3-Atoms>
12

>  <Amides 2>
0

>  <Amines 2>
0

>  <Aromatic Nitrogens 2>
0

>  <Basic Nitrogens>
0

$$$$
cis-Phenothrin
Actelion Java MolfileCreator 2.0

  0  0  0  0  0  0              0 V3000
M  V30 BEGIN CTAB
M  V30 COUNTS 26 28 0 0 0
M  V30 BEGIN ATOM
M  V30 1 O 0.0 0.0 0.0 0
M  V30 2 C -1.3062 0.7531 0.0 0
M  V30 3 O -2.6125 0.0117 0.0 0
M  V30 4 C -1.318 2.2595 0.0 0 CFG=1
M  V30 5 C -3.9188 0.7649 0.0 0
M  V30 6 C -0.5766 3.5657 0.0 0
M  V30 7 C -2.0712 3.5657 0.0 0 CFG=1
M  V30 8 C -5.2251 0.0235 0.0 0
M  V30 9 C 0.9061 3.5775 0.0 0
M  V30 10 C 0.1529 4.872 0.0 0
M  V30 11 C -3.3774 4.3189 0.0 0
M  V30 12 C -6.5313 0.7767 0.0 0
M  V30 13 C -5.2368 -1.4592 0.0 0
M  V30 14 C -3.3892 5.8252 0.0 0
M  V30 15 C -7.8376 0.0353 0.0 0
M  V30 16 C -6.5431 -2.2006 0.0 0
M  V30 17 C -2.1065 6.5784 0.0 0
M  V30 18 C -4.6955 6.5784 0.0 0
M  V30 19 O -9.1439 0.7884 0.0 0
M  V30 20 C -7.8494 -1.4474 0.0 0
M  V30 21 C -10.4502 0.047 0.0 0
M  V30 22 C -11.7565 0.8002 0.0 0
M  V30 23 C -10.4619 -1.4357 0.0 0
M  V30 24 C -13.0627 0.0588 0.0 0
M  V30 25 C -11.7682 -2.1771 0.0 0
M  V30 26 C -13.0745 -1.4239 0.0 0
M  V30 END ATOM
M  V30 BEGIN BOND
M  V30 1 2 1 2
M  V30 2 1 2 3
M  V30 3 1 4 2 CFG=3
M  V30 4 1 3 5
M  V30 5 1 4 6
M  V30 6 1 4 7
M  V30 7 1 5 8
M  V30 8 1 6 9
M  V30 9 1 6 10
M  V30 10 1 7 11 CFG=3
M  V30 11 2 8 12
M  V30 12 1 8 13
M  V30 13 2 11 14
M  V30 14 1 12 15
M  V30 15 2 13 16
M  V30 16 1 14 17
M  V30 17 1 14 18
M  V30 18 1 15 19
M  V30 19 2 15 20
M  V30 20 1 19 21
M  V30 21 2 21 22
M  V30 22 1 21 23
M  V30 23 1 22 24
M  V30 24 2 23 25
M  V30 25 2 24 26
M  V30 26 1 6 7
M  V30 27 1 16 20
M  V30 28 1 25 26
M  V30 END BOND
M  V30 BEGIN COLLECTION
M  V30 MDLV30/STEABS ATOMS=(2 4 7)
M  V30 END COLLECTION
M  V30 END CTAB
M  END
>  <Molecule Name>
cis-Phenothrin

>  <Order (spectra)>
80

>  <NAME>
cis-Phenothrin

>  <Molecular Formula>
C23H26O3

>  <Monoisotopic Mass>
350.188195

>  <SMILES>
CC(C)=C[C@H]1[C@@H](C(=O)OCC2=CC=CC(OC3=CC=CC=C3)=C2)C1(C)C

>  <InChI>
InChI=1S/C23H26O3/c1-16(2)13-20-21(23(20,3)4)22(24)25-15-17-9-8-12-19(14-17)26-18-10-6-5-7-11-18/h5-14,20-21H,15H2,1-4H3/t20-,21+/m1/s1

>  <InChIKey>
SBNFWQZLDJGRLK-SFTDATJTSA-N

>  <Kingdom>
Organic compounds

>  <Superclass>
Lipids and lipid-like molecules

>  <Class>
Fatty Acyls

>  <Subclass>
Fatty acid esters

>  <Parent Level 1>
Pyrethroids

>  <Parent Level 2>


>  <Parent Level 3>


>  <cLogP>
5.3937

>  <cLogS>
-5.656

>  <Druglikeness>
-0.023795

>  <NP-class probability>
0.93

>  <SmilesFragFp 3>


>  <MS_READY_SMILES>
CC(C)=CC1C(C(=O)OCC2=CC=CC(OC3=CC=CC=C3)=C2)C1(C)C

>  <MS_READY_InChI>
InChI=1S/C23H26O3/c1-16(2)13-20-21(23(20,3)4)22(24)25-15-17-9-8-12-19(14-17)26-18-10-6-5-7-11-18/h5-14,20-21H,15H2,1-4H3

>  <QSAR_READY_SMILES>
CC(C)=CC1C(C(=O)OCC2=CC=CC(OC3=CC=CC=C3)=C2)C1(C)C

>  <QSAR_READY_InChI>
InChI=1S/C23H26O3/c1-16(2)13-20-21(23(20,3)4)22(24)25-15-17-9-8-12-19(14-17)26-18-10-6-5-7-11-18/h5-14,20-21H,15H2,1-4H3

>  <DTXSID>
DTXSID30274050

>  <DTXCID>
DTXCID30225729

>  <CASRN>
51186-88-0

>  <EXPOCAST_MEDIAN_EXPOSURE_PREDICTION_MG/KG-BW/DAY>
5.57E-06

>  <BIOCONCENTRATION_FACTOR_TEST_PRED>
685.488

>  <BOILING_POINT_DEGC_TEST_PRED>
404.99

>  <48HR_DAPHNIA_LC50_MOL/L_TEST_PRED>
1.41E-08

>  <DENSITY_G/CM^3_TEST_PRED>
1.101

>  <DEVTOX_TEST_PRED>
0.77

>  <96HR_FATHEAD_MINNOW_MOL/L_TEST_PRED>
2.90E-08

>  <FLASH_POINT_DEGC_TEST_PRED>
194.866

>  <MELTING_POINT_DEGC_TEST_PRED>
49.042

>  <AMES_MUTAGENICITY_TEST_PRED>
0.578

>  <ORAL_RAT_LD50_MOL/KG_TEST_PRED>
0.00164816

>  <SURFACE_TENSION_DYN/CM_TEST_PRED>
-

>  <THERMAL_CONDUCTIVITY_MW/(M*K)_TEST_PRED>
132.628

>  <TETRAHYMENA_PYRIFORMIS_IGC50_MOL/L_TEST_PRED>
1.91E-06

>  <VISCOSITY_CP_CP_TEST_PRED>
-

>  <VAPOR_PRESSURE_MMHG_TEST_PRED>
1.03E-07

>  <WATER_SOLUBILITY_MOL/L_TEST_PRED>
8.81E-08

>  <ATMOSPHERIC_HYDROXYLATION_RATE_(AOH)_CM3/MOLECULE*SEC_OPERA_PRED>
6.39E-11

>  <BIOCONCENTRATION_FACTOR_OPERA_PRED>
638.501

>  <BIODEGRADATION_HALF_LIFE_DAYS_DAYS_OPERA_PRED>
3.35011

>  <BOILING_POINT_DEGC_OPERA_PRED>
350.152

>  <HENRYS_LAW_ATM-M3/MOLE_OPERA_PRED>
2.85E-08

>  <OPERA_KM_DAYS_OPERA_PRED>
2.67969

>  <OCTANOL_AIR_PARTITION_COEFF_LOGKOA_OPERA_PRED>
10.1296

>  <SOIL_ADSORPTION_COEFFICIENT_KOC_L/KG_OPERA_PRED>
95097.7

>  <OCTANOL_WATER_PARTITION_LOGP_OPERA_PRED>
6.01219

>  <MELTING_POINT_DEGC_OPERA_PRED>
61.3863

>  <VAPOR_PRESSURE_MMHG_OPERA_PRED>
1.43E-07

>  <WATER_SOLUBILITY_MOL/L_OPERA_PRED>
2.33E-07

>  <Shape Index>
0.61538

>  <Molecular Flexibility>
0.48688

>  <Molecular Complexity>
0.74343

>  <Electronegative Atoms>
3

>  <Stereo Centers>
2

>  <Rotatable Bonds>
7

>  <Rings Closures>
3

>  <Aromatic Rings>
2

>  <Aromatic Atoms>
12

>  <Amides>
0

>  <Amines>
0

>  <Aromatic Nitrogens>
0

>  <Shape Index 2>
0.61538

>  <Molecular Flexibility 2>
0.48688

>  <Molecular Complexity 2>
0.74343

>  <Non-C/H Atoms>
3

>  <Electronegative Atoms 2>
3

>  <Stereo Centers 2>
2

>  <Rotatable Bonds 2>
7

>  <Rings Closures 2>
3

>  <Aromatic Rings 2>
2

>  <Aromatic Atoms 2>
12

>  <sp3-Atoms>
10

>  <Amides 2>
0

>  <Amines 2>
0

>  <Aromatic Nitrogens 2>
0

>  <Basic Nitrogens>
0

$$$$
trans-Phenothrin
Actelion Java MolfileCreator 2.0

  0  0  0  0  0  0              0 V3000
M  V30 BEGIN CTAB
M  V30 COUNTS 26 28 0 0 0
M  V30 BEGIN ATOM
M  V30 1 O 0.0 0.0 0.0 0
M  V30 2 C -1.3062 0.7531 0.0 0
M  V30 3 O -2.6125 0.0117 0.0 0
M  V30 4 C -1.318 2.2595 0.0 0
M  V30 5 C -3.9188 0.7649 0.0 0
M  V30 6 C -0.5766 3.5657 0.0 0
M  V30 7 C -2.0712 3.5657 0.0 0
M  V30 8 C -5.2251 0.0235 0.0 0
M  V30 9 C 0.9061 3.5775 0.0 0
M  V30 10 C 0.1529 4.872 0.0 0
M  V30 11 C -3.3774 4.3189 0.0 0
M  V30 12 C -6.5313 0.7767 0.0 0
M  V30 13 C -5.2368 -1.4592 0.0 0
M  V30 14 C -3.3892 5.8252 0.0 0
M  V30 15 C -7.8376 0.0353 0.0 0
M  V30 16 C -6.5431 -2.2006 0.0 0
M  V30 17 C -2.1065 6.5784 0.0 0
M  V30 18 C -4.6955 6.5784 0.0 0
M  V30 19 O -9.1439 0.7884 0.0 0
M  V30 20 C -7.8494 -1.4474 0.0 0
M  V30 21 C -10.4502 0.047 0.0 0
M  V30 22 C -11.7565 0.8002 0.0 0
M  V30 23 C -10.4619 -1.4357 0.0 0
M  V30 24 C -13.0627 0.0588 0.0 0
M  V30 25 C -11.7682 -2.1771 0.0 0
M  V30 26 C -13.0745 -1.4239 0.0 0
M  V30 END ATOM
M  V30 BEGIN BOND
M  V30 1 2 1 2
M  V30 2 1 2 3
M  V30 3 1 2 4
M  V30 4 1 3 5
M  V30 5 1 4 6
M  V30 6 1 4 7
M  V30 7 1 5 8
M  V30 8 1 6 9
M  V30 9 1 6 10
M  V30 10 1 7 11
M  V30 11 2 8 12
M  V30 12 1 8 13
M  V30 13 2 11 14
M  V30 14 1 12 15
M  V30 15 2 13 16
M  V30 16 1 14 17
M  V30 17 1 14 18
M  V30 18 1 15 19
M  V30 19 2 15 20
M  V30 20 1 19 21
M  V30 21 2 21 22
M  V30 22 1 21 23
M  V30 23 1 22 24
M  V30 24 2 23 25
M  V30 25 2 24 26
M  V30 26 1 6 7
M  V30 27 1 16 20
M  V30 28 1 25 26
M  V30 END BOND
M  V30 END CTAB
M  END
>  <Molecule Name>
trans-Phenothrin

>  <Order (spectra)>
81

>  <NAME>
trans-Phenothrin

>  <Molecular Formula>
C23H26O3

>  <Monoisotopic Mass>
350.188195

>  <SMILES>
CC(C)=CC1C(C(=O)OCC2=CC=CC(OC3=CC=CC=C3)=C2)C1(C)C

>  <InChI>
InChI=1S/C23H26O3/c1-16(2)13-20-21(23(20,3)4)22(24)25-15-17-9-8-12-19(14-17)26-18-10-6-5-7-11-18/h5-14,20-21H,15H2,1-4H3

>  <InChIKey>
SBNFWQZLDJGRLK-UHFFFAOYSA-N

>  <Kingdom>
Organic compounds

>  <Superclass>
Lipids and lipid-like molecules

>  <Class>
Fatty Acyls

>  <Subclass>
Fatty acid esters

>  <Parent Level 1>
Pyrethroids

>  <Parent Level 2>


>  <Parent Level 3>


>  <cLogP>
5.3937

>  <cLogS>
-5.656

>  <Druglikeness>
-0.023795

>  <NP-class probability>
0.93

>  <SmilesFragFp 3>


>  <MS_READY_SMILES>
CC(C)=CC1C(C(=O)OCC2=CC=CC(OC3=CC=CC=C3)=C2)C1(C)C

>  <MS_READY_InChI>
InChI=1S/C23H26O3/c1-16(2)13-20-21(23(20,3)4)22(24)25-15-17-9-8-12-19(14-17)26-18-10-6-5-7-11-18/h5-14,20-21H,15H2,1-4H3

>  <QSAR_READY_SMILES>
CC(C)=CC1C(C(=O)OCC2=CC=CC(OC3=CC=CC=C3)=C2)C1(C)C

>  <QSAR_READY_InChI>
InChI=1S/C23H26O3/c1-16(2)13-20-21(23(20,3)4)22(24)25-15-17-9-8-12-19(14-17)26-18-10-6-5-7-11-18/h5-14,20-21H,15H2,1-4H3

>  <DTXSID>
DTXSID7032688

>  <DTXCID>
DTXCID00196513

>  <CASRN>
26002-80-2

>  <EXPOCAST_MEDIAN_EXPOSURE_PREDICTION_MG/KG-BW/DAY>
2.62E-07

>  <BIOCONCENTRATION_FACTOR_TEST_PRED>
685.488

>  <BOILING_POINT_DEGC_TEST_PRED>
404.99

>  <48HR_DAPHNIA_LC50_MOL/L_TEST_PRED>
1.29E-08

>  <DENSITY_G/CM^3_TEST_PRED>
1.101

>  <DEVTOX_TEST_PRED>
0.77

>  <96HR_FATHEAD_MINNOW_MOL/L_TEST_PRED>
2.90E-08

>  <FLASH_POINT_DEGC_TEST_PRED>
194.866

>  <MELTING_POINT_DEGC_TEST_PRED>
49.042

>  <AMES_MUTAGENICITY_TEST_PRED>
0.411

>  <ORAL_RAT_LD50_MOL/KG_TEST_PRED>
0.00164816

>  <SURFACE_TENSION_DYN/CM_TEST_PRED>
-

>  <THERMAL_CONDUCTIVITY_MW/(M*K)_TEST_PRED>
132.628

>  <TETRAHYMENA_PYRIFORMIS_IGC50_MOL/L_TEST_PRED>
1.91E-06

>  <VISCOSITY_CP_CP_TEST_PRED>
-

>  <VAPOR_PRESSURE_MMHG_TEST_PRED>
1.03E-07

>  <WATER_SOLUBILITY_MOL/L_TEST_PRED>
9.18E-08

>  <ATMOSPHERIC_HYDROXYLATION_RATE_(AOH)_CM3/MOLECULE*SEC_OPERA_PRED>
6.39E-11

>  <BIOCONCENTRATION_FACTOR_OPERA_PRED>
638.501

>  <BIODEGRADATION_HALF_LIFE_DAYS_DAYS_OPERA_PRED>
3.35011

>  <BOILING_POINT_DEGC_OPERA_PRED>
350.152

>  <HENRYS_LAW_ATM-M3/MOLE_OPERA_PRED>
2.85E-08

>  <OPERA_KM_DAYS_OPERA_PRED>
2.67969

>  <OCTANOL_AIR_PARTITION_COEFF_LOGKOA_OPERA_PRED>
10.1296

>  <SOIL_ADSORPTION_COEFFICIENT_KOC_L/KG_OPERA_PRED>
95097.7

>  <OCTANOL_WATER_PARTITION_LOGP_OPERA_PRED>
6.01219

>  <MELTING_POINT_DEGC_OPERA_PRED>
61.3863

>  <VAPOR_PRESSURE_MMHG_OPERA_PRED>
1.43E-07

>  <WATER_SOLUBILITY_MOL/L_OPERA_PRED>
2.33E-07

>  <Shape Index>
0.61538

>  <Molecular Flexibility>
0.55486

>  <Molecular Complexity>
0.73864

>  <Electronegative Atoms>
3

>  <Stereo Centers>
2

>  <Rotatable Bonds>
7

>  <Rings Closures>
3

>  <Aromatic Rings>
2

>  <Aromatic Atoms>
12

>  <Amides>
0

>  <Amines>
0

>  <Aromatic Nitrogens>
0

>  <Shape Index 2>
0.61538

>  <Molecular Flexibility 2>
0.55486

>  <Molecular Complexity 2>
0.73864

>  <Non-C/H Atoms>
3

>  <Electronegative Atoms 2>
3

>  <Stereo Centers 2>
2

>  <Rotatable Bonds 2>
7

>  <Rings Closures 2>
3

>  <Aromatic Rings 2>
2

>  <Aromatic Atoms 2>
12

>  <sp3-Atoms>
10

>  <Amides 2>
0

>  <Amines 2>
0

>  <Aromatic Nitrogens 2>
0

>  <Basic Nitrogens>
0

$$$$
cis-Cyphenothrin
Actelion Java MolfileCreator 2.0

  0  0  0  0  0  0              0 V3000
M  V30 BEGIN CTAB
M  V30 COUNTS 28 30 0 0 0
M  V30 BEGIN ATOM
M  V30 1 O 0.0 0.0 0.0 0
M  V30 2 C 1.2887 -0.7448 0.0 0
M  V30 3 O 2.5774 0.0118 0.0 0
M  V30 4 C 1.2768 -2.2345 0.0 0
M  V30 5 C 2.5656 1.5251 0.0 0
M  V30 6 C 0.5202 -3.5232 0.0 0
M  V30 7 C 2.0217 -3.5232 0.0 0
M  V30 8 C 3.8543 2.2818 0.0 0
M  V30 9 C 1.2532 2.2818 0.0 0
M  V30 10 C -0.9931 -3.5114 0.0 0
M  V30 11 C -0.2364 -4.812 0.0 0
M  V30 12 C 3.3104 -4.2563 0.0 0
M  V30 13 N 5.143 3.0385 0.0 0
M  V30 14 C -0.0591 1.537 0.0 0
M  V30 15 C 1.2414 3.7952 0.0 0
M  V30 16 C 3.2986 -5.746 0.0 0
M  V30 17 C -1.3714 2.2936 0.0 0
M  V30 18 C -0.0709 4.5519 0.0 0
M  V30 19 C 1.9862 -6.4908 0.0 0
M  V30 20 C 4.5873 -6.4908 0.0 0
M  V30 21 O -2.6838 1.5488 0.0 0
M  V30 22 C -1.3833 3.807 0.0 0
M  V30 23 C -2.6956 0.0591 0.0 0
M  V30 24 C -4.008 -0.6857 0.0 0
M  V30 25 C -1.4069 -0.6857 0.0 0
M  V30 26 C -4.0198 -2.1754 0.0 0
M  V30 27 C -1.4187 -2.1754 0.0 0
M  V30 28 C -2.7311 -2.9203 0.0 0
M  V30 END ATOM
M  V30 BEGIN BOND
M  V30 1 2 1 2
M  V30 2 1 2 3
M  V30 3 1 2 4
M  V30 4 1 3 5
M  V30 5 1 4 6
M  V30 6 1 4 7
M  V30 7 1 5 8
M  V30 8 1 5 9
M  V30 9 1 6 10
M  V30 10 1 6 11
M  V30 11 1 7 12
M  V30 12 3 8 13
M  V30 13 2 9 14
M  V30 14 1 9 15
M  V30 15 2 12 16
M  V30 16 1 14 17
M  V30 17 2 15 18
M  V30 18 1 16 19
M  V30 19 1 16 20
M  V30 20 1 17 21
M  V30 21 2 17 22
M  V30 22 1 21 23
M  V30 23 2 23 24
M  V30 24 1 23 25
M  V30 25 1 24 26
M  V30 26 2 25 27
M  V30 27 2 26 28
M  V30 28 1 6 7
M  V30 29 1 18 22
M  V30 30 1 27 28
M  V30 END BOND
M  V30 END CTAB
M  END
>  <Molecule Name>
cis-Cyphenothrin

>  <Order (spectra)>
82

>  <NAME>
cis-Cyphenothrin

>  <Molecular Formula>
C24H25NO3

>  <Monoisotopic Mass>
375.183444

>  <SMILES>
CC(C)=CC1C(C(=O)OC(C#N)C2=CC=CC(OC3=CC=CC=C3)=C2)C1(C)C

>  <InChI>
InChI=1S/C24H25NO3/c1-16(2)13-20-22(24(20,3)4)23(26)28-21(15-25)17-9-8-12-19(14-17)27-18-10-6-5-7-11-18/h5-14,20-22H,1-4H3

>  <InChIKey>
FJDPATXIBIBRIM-UHFFFAOYSA-N

>  <Kingdom>
Organic compounds

>  <Superclass>
Lipids and lipid-like molecules

>  <Class>
Fatty Acyls

>  <Subclass>
Fatty acid esters

>  <Parent Level 1>
Pyrethroids

>  <Parent Level 2>


>  <Parent Level 3>


>  <cLogP>
4.926

>  <cLogS>
-5.875

>  <Druglikeness>
-5.4585

>  <NP-class probability>
0.64

>  <SmilesFragFp 3>


>  <MS_READY_SMILES>
CC(C)=CC1C(C(=O)OC(C#N)C2=CC=CC(OC3=CC=CC=C3)=C2)C1(C)C

>  <MS_READY_InChI>
InChI=1S/C24H25NO3/c1-16(2)13-20-22(24(20,3)4)23(26)28-21(15-25)17-9-8-12-19(14-17)27-18-10-6-5-7-11-18/h5-14,20-22H,1-4H3

>  <QSAR_READY_SMILES>
CC(C)=CC1C(C(=O)OC(C#N)C2=CC=CC(OC3=CC=CC=C3)=C2)C1(C)C

>  <QSAR_READY_InChI>
InChI=1S/C24H25NO3/c1-16(2)13-20-22(24(20,3)4)23(26)28-21(15-25)17-9-8-12-19(14-17)27-18-10-6-5-7-11-18/h5-14,20-22H,1-4H3

>  <DTXSID>
DTXSID4032536

>  <DTXCID>
DTXCID2012536

>  <CASRN>
39515-40-7

>  <EXPOCAST_MEDIAN_EXPOSURE_PREDICTION_MG/KG-BW/DAY>
1.03E-05

>  <BIOCONCENTRATION_FACTOR_TEST_PRED>
691.831

>  <BOILING_POINT_DEGC_TEST_PRED>
437.286

>  <48HR_DAPHNIA_LC50_MOL/L_TEST_PRED>
2.55E-09

>  <DENSITY_G/CM^3_TEST_PRED>
1.136

>  <DEVTOX_TEST_PRED>
0.851

>  <96HR_FATHEAD_MINNOW_MOL/L_TEST_PRED>
1.17E-08

>  <FLASH_POINT_DEGC_TEST_PRED>
254.268

>  <MELTING_POINT_DEGC_TEST_PRED>
80.857

>  <AMES_MUTAGENICITY_TEST_PRED>
0.061

>  <ORAL_RAT_LD50_MOL/KG_TEST_PRED>
0.00115611

>  <SURFACE_TENSION_DYN/CM_TEST_PRED>
-

>  <THERMAL_CONDUCTIVITY_MW/(M*K)_TEST_PRED>
-

>  <TETRAHYMENA_PYRIFORMIS_IGC50_MOL/L_TEST_PRED>
2.10E-06

>  <VISCOSITY_CP_CP_TEST_PRED>
-

>  <VAPOR_PRESSURE_MMHG_TEST_PRED>
5.68E-09

>  <WATER_SOLUBILITY_MOL/L_TEST_PRED>
8.65E-08

>  <ATMOSPHERIC_HYDROXYLATION_RATE_(AOH)_CM3/MOLECULE*SEC_OPERA_PRED>
1.13E-10

>  <BIOCONCENTRATION_FACTOR_OPERA_PRED>
387.521

>  <BIODEGRADATION_HALF_LIFE_DAYS_DAYS_OPERA_PRED>
3.35066

>  <BOILING_POINT_DEGC_OPERA_PRED>
392.332

>  <HENRYS_LAW_ATM-M3/MOLE_OPERA_PRED>
2.15E-08

>  <OPERA_KM_DAYS_OPERA_PRED>
2.98012

>  <OCTANOL_AIR_PARTITION_COEFF_LOGKOA_OPERA_PRED>
11.7669

>  <SOIL_ADSORPTION_COEFFICIENT_KOC_L/KG_OPERA_PRED>
66586.3

>  <OCTANOL_WATER_PARTITION_LOGP_OPERA_PRED>
5.94645

>  <MELTING_POINT_DEGC_OPERA_PRED>
61.8039

>  <VAPOR_PRESSURE_MMHG_OPERA_PRED>
7.05E-09

>  <WATER_SOLUBILITY_MOL/L_OPERA_PRED>
2.70E-08

>  <Shape Index>
0.57143

>  <Molecular Flexibility>
0.52249

>  <Molecular Complexity>
0.77181

>  <Electronegative Atoms>
4

>  <Stereo Centers>
3

>  <Rotatable Bonds>
7

>  <Rings Closures>
3

>  <Aromatic Rings>
2

>  <Aromatic Atoms>
12

>  <Amides>
0

>  <Amines>
0

>  <Aromatic Nitrogens>
0

>  <Shape Index 2>
0.57143

>  <Molecular Flexibility 2>
0.52249

>  <Molecular Complexity 2>
0.77181

>  <Non-C/H Atoms>
4

>  <Electronegative Atoms 2>
4

>  <Stereo Centers 2>
3

>  <Rotatable Bonds 2>
7

>  <Rings Closures 2>
3

>  <Aromatic Rings 2>
2

>  <Aromatic Atoms 2>
12

>  <sp3-Atoms>
10

>  <Amides 2>
0

>  <Amines 2>
0

>  <Aromatic Nitrogens 2>
0

>  <Basic Nitrogens>
0

$$$$
trans-Cyphenothrin
Actelion Java MolfileCreator 2.0

  0  0  0  0  0  0              0 V3000
M  V30 BEGIN CTAB
M  V30 COUNTS 28 30 0 0 0
M  V30 BEGIN ATOM
M  V30 1 O 0.0 0.0 0.0 0
M  V30 2 C 1.2887 -0.7448 0.0 0
M  V30 3 O 2.5774 0.0118 0.0 0
M  V30 4 C 1.2768 -2.2345 0.0 0 CFG=1
M  V30 5 C 2.5656 1.5251 0.0 0
M  V30 6 C 0.5202 -3.5232 0.0 0
M  V30 7 C 2.0217 -3.5232 0.0 0 CFG=2
M  V30 8 C 3.8543 2.2818 0.0 0
M  V30 9 C 1.2532 2.2818 0.0 0
M  V30 10 C -0.9931 -3.5114 0.0 0
M  V30 11 C -0.2364 -4.812 0.0 0
M  V30 12 C 3.3104 -4.2563 0.0 0
M  V30 13 N 5.143 3.0385 0.0 0
M  V30 14 C -0.0591 1.537 0.0 0
M  V30 15 C 1.2414 3.7952 0.0 0
M  V30 16 C 3.2986 -5.746 0.0 0
M  V30 17 C -1.3714 2.2936 0.0 0
M  V30 18 C -0.0709 4.5519 0.0 0
M  V30 19 C 1.9862 -6.4908 0.0 0
M  V30 20 C 4.5873 -6.4908 0.0 0
M  V30 21 O -2.6838 1.5488 0.0 0
M  V30 22 C -1.3833 3.807 0.0 0
M  V30 23 C -2.6956 0.0591 0.0 0
M  V30 24 C -4.008 -0.6857 0.0 0
M  V30 25 C -1.4069 -0.6857 0.0 0
M  V30 26 C -4.0198 -2.1754 0.0 0
M  V30 27 C -1.4187 -2.1754 0.0 0
M  V30 28 C -2.7311 -2.9203 0.0 0
M  V30 END ATOM
M  V30 BEGIN BOND
M  V30 1 2 1 2
M  V30 2 1 2 3
M  V30 3 1 4 2 CFG=3
M  V30 4 1 3 5
M  V30 5 1 4 6
M  V30 6 1 4 7
M  V30 7 1 5 8
M  V30 8 1 5 9
M  V30 9 1 6 10
M  V30 10 1 6 11
M  V30 11 1 7 12 CFG=1
M  V30 12 3 8 13
M  V30 13 2 9 14
M  V30 14 1 9 15
M  V30 15 2 12 16
M  V30 16 1 14 17
M  V30 17 2 15 18
M  V30 18 1 16 19
M  V30 19 1 16 20
M  V30 20 1 17 21
M  V30 21 2 17 22
M  V30 22 1 21 23
M  V30 23 2 23 24
M  V30 24 1 23 25
M  V30 25 1 24 26
M  V30 26 2 25 27
M  V30 27 2 26 28
M  V30 28 1 6 7
M  V30 29 1 18 22
M  V30 30 1 27 28
M  V30 END BOND
M  V30 BEGIN COLLECTION
M  V30 MDLV30/STEABS ATOMS=(2 4 7)
M  V30 END COLLECTION
M  V30 END CTAB
M  END
>  <Molecule Name>
trans-Cyphenothrin

>  <Order (spectra)>
83

>  <NAME>
trans-Cyphenothrin

>  <Molecular Formula>
C24H25NO3

>  <Monoisotopic Mass>
375.183444

>  <SMILES>
CC(=C[C@@H]1[C@H](C1(C)C)C(=O)OC(C#N)C2=CC(=CC=C2)OC3=CC=CC=C3)C

>  <InChI>
InChI=1S/C24H25NO3/c1-16(2)13-20-22(24(20,3)4)23(26)28-21(15-25)17-9-8-12-19(14-17)27-18-10-6-5-7-11-18/h5-14,20-22H,1-4H3/t20-,21?,22-/m0/s1

>  <InChIKey>
FJDPATXIBIBRIM-QFMSAKRMSA-N

>  <Kingdom>
Organic compounds

>  <Superclass>
Lipids and lipid-like molecules

>  <Class>
Fatty Acyls

>  <Subclass>
Fatty acid esters

>  <Parent Level 1>
Pyrethroids

>  <Parent Level 2>


>  <Parent Level 3>


>  <cLogP>
4.926

>  <cLogS>
-5.875

>  <Druglikeness>
-5.4585

>  <NP-class probability>
0.64

>  <SmilesFragFp 3>


>  <MS_READY_SMILES>
-

>  <MS_READY_InChI>


>  <QSAR_READY_SMILES>
-

>  <QSAR_READY_InChI>


>  <DTXSID>
-

>  <DTXCID>
-

>  <CASRN>
-

>  <EXPOCAST_MEDIAN_EXPOSURE_PREDICTION_MG/KG-BW/DAY>
-

>  <BIOCONCENTRATION_FACTOR_TEST_PRED>
-

>  <BOILING_POINT_DEGC_TEST_PRED>
-

>  <48HR_DAPHNIA_LC50_MOL/L_TEST_PRED>
-

>  <DENSITY_G/CM^3_TEST_PRED>
-

>  <DEVTOX_TEST_PRED>
-

>  <96HR_FATHEAD_MINNOW_MOL/L_TEST_PRED>
-

>  <FLASH_POINT_DEGC_TEST_PRED>
-

>  <MELTING_POINT_DEGC_TEST_PRED>
-

>  <AMES_MUTAGENICITY_TEST_PRED>
-

>  <ORAL_RAT_LD50_MOL/KG_TEST_PRED>
-

>  <SURFACE_TENSION_DYN/CM_TEST_PRED>
-

>  <THERMAL_CONDUCTIVITY_MW/(M*K)_TEST_PRED>
-

>  <TETRAHYMENA_PYRIFORMIS_IGC50_MOL/L_TEST_PRED>
-

>  <VISCOSITY_CP_CP_TEST_PRED>
-

>  <VAPOR_PRESSURE_MMHG_TEST_PRED>
-

>  <WATER_SOLUBILITY_MOL/L_TEST_PRED>
-

>  <ATMOSPHERIC_HYDROXYLATION_RATE_(AOH)_CM3/MOLECULE*SEC_OPERA_PRED>
-

>  <BIOCONCENTRATION_FACTOR_OPERA_PRED>
-

>  <BIODEGRADATION_HALF_LIFE_DAYS_DAYS_OPERA_PRED>
-

>  <BOILING_POINT_DEGC_OPERA_PRED>
-

>  <HENRYS_LAW_ATM-M3/MOLE_OPERA_PRED>
-

>  <OPERA_KM_DAYS_OPERA_PRED>
-

>  <OCTANOL_AIR_PARTITION_COEFF_LOGKOA_OPERA_PRED>
-

>  <SOIL_ADSORPTION_COEFFICIENT_KOC_L/KG_OPERA_PRED>
-

>  <OCTANOL_WATER_PARTITION_LOGP_OPERA_PRED>
-

>  <MELTING_POINT_DEGC_OPERA_PRED>
-

>  <VAPOR_PRESSURE_MMHG_OPERA_PRED>
-

>  <WATER_SOLUBILITY_MOL/L_OPERA_PRED>
-

>  <Shape Index>
0.57143

>  <Molecular Flexibility>
0.45596

>  <Molecular Complexity>
0.77562

>  <Electronegative Atoms>
4

>  <Stereo Centers>
3

>  <Rotatable Bonds>
7

>  <Rings Closures>
3

>  <Aromatic Rings>
2

>  <Aromatic Atoms>
12

>  <Amides>
0

>  <Amines>
0

>  <Aromatic Nitrogens>
0

>  <Shape Index 2>
0.57143

>  <Molecular Flexibility 2>
0.45596

>  <Molecular Complexity 2>
0.77562

>  <Non-C/H Atoms>
4

>  <Electronegative Atoms 2>
4

>  <Stereo Centers 2>
3

>  <Rotatable Bonds 2>
7

>  <Rings Closures 2>
3

>  <Aromatic Rings 2>
2

>  <Aromatic Atoms 2>
12

>  <sp3-Atoms>
10

>  <Amides 2>
0

>  <Amines 2>
0

>  <Aromatic Nitrogens 2>
0

>  <Basic Nitrogens>
0

$$$$
Flucythrinate
Actelion Java MolfileCreator 2.0

  0  0  0  0  0  0              0 V3000
M  V30 BEGIN CTAB
M  V30 COUNTS 33 35 0 0 0
M  V30 BEGIN ATOM
M  V30 1 F 0.0 0.0 0.0 0
M  V30 2 C -0.0118 -1.4954 0.0 0
M  V30 3 F 1.2818 -2.2312 0.0 0
M  V30 4 O -1.3292 -2.2312 0.0 0
M  V30 5 C -1.3411 -3.7267 0.0 0
M  V30 6 C -2.6585 -4.4625 0.0 0
M  V30 7 C -0.0474 -4.4625 0.0 0
M  V30 8 C -2.6704 -5.958 0.0 0
M  V30 9 C -0.0593 -5.958 0.0 0
M  V30 10 C -1.3767 -6.6938 0.0 0
M  V30 11 C -1.3886 -8.1893 0.0 0
M  V30 12 C -2.706 -8.9251 0.0 0
M  V30 13 C -0.0949 -8.9251 0.0 0
M  V30 14 O -2.7179 -10.4206 0.0 0
M  V30 15 O -4.0234 -8.1655 0.0 0
M  V30 16 C 1.1987 -8.1655 0.0 0
M  V30 17 C -0.1068 -10.4206 0.0 0
M  V30 18 C -5.3408 -8.9014 0.0 0
M  V30 19 C -6.6582 -8.1418 0.0 0
M  V30 20 C -5.3527 -10.3968 0.0 0
M  V30 21 N -7.9756 -7.3822 0.0 0
M  V30 22 C -6.6701 -11.1327 0.0 0
M  V30 23 C -4.059 -11.1327 0.0 0
M  V30 24 C -6.682 -12.6281 0.0 0
M  V30 25 C -4.0709 -12.6281 0.0 0
M  V30 26 O -7.9994 -13.364 0.0 0
M  V30 27 C -5.3883 -13.364 0.0 0
M  V30 28 C -8.0112 -14.8594 0.0 0
M  V30 29 C -9.3286 -15.5952 0.0 0
M  V30 30 C -6.7176 -15.5952 0.0 0
M  V30 31 C -9.3405 -17.0907 0.0 0
M  V30 32 C -6.7294 -17.0907 0.0 0
M  V30 33 C -8.0468 -17.8265 0.0 0
M  V30 END ATOM
M  V30 BEGIN BOND
M  V30 1 1 1 2
M  V30 2 1 2 3
M  V30 3 1 2 4
M  V30 4 1 4 5
M  V30 5 2 5 6
M  V30 6 1 5 7
M  V30 7 1 6 8
M  V30 8 2 7 9
M  V30 9 2 8 10
M  V30 10 1 10 11
M  V30 11 1 11 12
M  V30 12 1 11 13
M  V30 13 2 12 14
M  V30 14 1 12 15
M  V30 15 1 13 16
M  V30 16 1 13 17
M  V30 17 1 15 18
M  V30 18 1 18 19
M  V30 19 1 18 20
M  V30 20 3 19 21
M  V30 21 2 20 22
M  V30 22 1 20 23
M  V30 23 1 22 24
M  V30 24 2 23 25
M  V30 25 1 24 26
M  V30 26 2 24 27
M  V30 27 1 26 28
M  V30 28 2 28 29
M  V30 29 1 28 30
M  V30 30 1 29 31
M  V30 31 2 30 32
M  V30 32 2 31 33
M  V30 33 1 9 10
M  V30 34 1 25 27
M  V30 35 1 32 33
M  V30 END BOND
M  V30 END CTAB
M  END
>  <Molecule Name>
Flucythrinate

>  <Order (spectra)>
84

>  <NAME>
Flucythrinate

>  <Molecular Formula>
C26H23NO4F2

>  <Monoisotopic Mass>
451.159515

>  <SMILES>
CC(C)C(C1=CC=C(C=C1)OC(F)F)C(=O)OC(C#N)C2=CC(=CC=C2)OC3=CC=CC=C3

>  <InChI>
InChI=1S/C26H23F2NO4/c1-17(2)24(18-11-13-21(14-12-18)32-26(27)28)25(30)33-23(16-29)19-7-6-10-22(15-19)31-20-8-4-3-5-9-20/h3-15,17,23-24,26H,1-2H3

>  <InChIKey>
GBIHOLCMZGAKNG-UHFFFAOYSA-N

>  <Kingdom>
Organic compounds

>  <Superclass>
Lipids and lipid-like molecules

>  <Class>
Fatty Acyls

>  <Subclass>
Fatty acid esters

>  <Parent Level 1>
Pyrethroids

>  <Parent Level 2>


>  <Parent Level 3>


>  <cLogP>
5.1863

>  <cLogS>
-6.981

>  <Druglikeness>
-8.752

>  <NP-class probability>
0.26

>  <SmilesFragFp 3>


>  <MS_READY_SMILES>
-

>  <MS_READY_InChI>


>  <QSAR_READY_SMILES>
-

>  <QSAR_READY_InChI>


>  <DTXSID>
-

>  <DTXCID>
-

>  <CASRN>
-

>  <EXPOCAST_MEDIAN_EXPOSURE_PREDICTION_MG/KG-BW/DAY>
-

>  <BIOCONCENTRATION_FACTOR_TEST_PRED>
-

>  <BOILING_POINT_DEGC_TEST_PRED>
-

>  <48HR_DAPHNIA_LC50_MOL/L_TEST_PRED>
-

>  <DENSITY_G/CM^3_TEST_PRED>
-

>  <DEVTOX_TEST_PRED>
-

>  <96HR_FATHEAD_MINNOW_MOL/L_TEST_PRED>
-

>  <FLASH_POINT_DEGC_TEST_PRED>
-

>  <MELTING_POINT_DEGC_TEST_PRED>
-

>  <AMES_MUTAGENICITY_TEST_PRED>
-

>  <ORAL_RAT_LD50_MOL/KG_TEST_PRED>
-

>  <SURFACE_TENSION_DYN/CM_TEST_PRED>
-

>  <THERMAL_CONDUCTIVITY_MW/(M*K)_TEST_PRED>
-

>  <TETRAHYMENA_PYRIFORMIS_IGC50_MOL/L_TEST_PRED>
-

>  <VISCOSITY_CP_CP_TEST_PRED>
-

>  <VAPOR_PRESSURE_MMHG_TEST_PRED>
-

>  <WATER_SOLUBILITY_MOL/L_TEST_PRED>
-

>  <ATMOSPHERIC_HYDROXYLATION_RATE_(AOH)_CM3/MOLECULE*SEC_OPERA_PRED>
-

>  <BIOCONCENTRATION_FACTOR_OPERA_PRED>
-

>  <BIODEGRADATION_HALF_LIFE_DAYS_DAYS_OPERA_PRED>
-

>  <BOILING_POINT_DEGC_OPERA_PRED>
-

>  <HENRYS_LAW_ATM-M3/MOLE_OPERA_PRED>
-

>  <OPERA_KM_DAYS_OPERA_PRED>
-

>  <OCTANOL_AIR_PARTITION_COEFF_LOGKOA_OPERA_PRED>
-

>  <SOIL_ADSORPTION_COEFFICIENT_KOC_L/KG_OPERA_PRED>
-

>  <OCTANOL_WATER_PARTITION_LOGP_OPERA_PRED>
-

>  <MELTING_POINT_DEGC_OPERA_PRED>
-

>  <VAPOR_PRESSURE_MMHG_OPERA_PRED>
-

>  <WATER_SOLUBILITY_MOL/L_OPERA_PRED>
-

>  <Shape Index>
0.57576

>  <Molecular Flexibility>
0.54523

>  <Molecular Complexity>
0.79048

>  <Electronegative Atoms>
7

>  <Stereo Centers>
2

>  <Rotatable Bonds>
10

>  <Rings Closures>
3

>  <Aromatic Rings>
3

>  <Aromatic Atoms>
18

>  <Amides>
0

>  <Amines>
0

>  <Aromatic Nitrogens>
0

>  <Shape Index 2>
0.57576

>  <Molecular Flexibility 2>
0.54523

>  <Molecular Complexity 2>
0.79048

>  <Non-C/H Atoms>
7

>  <Electronegative Atoms 2>
7

>  <Stereo Centers 2>
2

>  <Rotatable Bonds 2>
10

>  <Rings Closures 2>
3

>  <Aromatic Rings 2>
3

>  <Aromatic Atoms 2>
18

>  <sp3-Atoms>
9

>  <Amides 2>
0

>  <Amines 2>
0

>  <Aromatic Nitrogens 2>
0

>  <Basic Nitrogens>
0

$$$$
cis-Fenvalerate
Actelion Java MolfileCreator 2.0

  0  0  0  0  0  0              0 V3000
M  V30 BEGIN CTAB
M  V30 COUNTS 30 32 0 0 0
M  V30 BEGIN ATOM
M  V30 1 Cl 0.0 0.0 0.0 0
M  V30 2 C -0.0118 -1.4952 0.0 0
M  V30 3 C -1.329 -2.2309 0.0 0
M  V30 4 C 1.2816 -2.2309 0.0 0
M  V30 5 C -1.3409 -3.7261 0.0 0
M  V30 6 C 1.2697 -3.7261 0.0 0
M  V30 7 C -0.0474 -4.4619 0.0 0
M  V30 8 C -0.0593 -5.9571 0.0 0 CFG=1
M  V30 9 C -1.3765 -6.6928 0.0 0
M  V30 10 C 1.2341 -6.6928 0.0 0
M  V30 11 O -1.3884 -8.188 0.0 0
M  V30 12 O -2.6937 -5.9333 0.0 0
M  V30 13 C 2.5276 -5.9333 0.0 0
M  V30 14 C 1.2222 -8.188 0.0 0
M  V30 15 C -4.0109 -6.6691 0.0 0 CFG=2
M  V30 16 C -5.3281 -5.9096 0.0 0
M  V30 17 C -4.0228 -8.1643 0.0 0
M  V30 18 N -6.6453 -5.1501 0.0 0
M  V30 19 C -5.34 -8.9 0.0 0
M  V30 20 C -2.7293 -8.9 0.0 0
M  V30 21 C -5.3519 -10.3953 0.0 0
M  V30 22 C -2.7412 -10.3953 0.0 0
M  V30 23 O -6.6691 -11.131 0.0 0
M  V30 24 C -4.0584 -11.131 0.0 0
M  V30 25 C -6.6809 -12.6262 0.0 0
M  V30 26 C -7.9982 -13.3619 0.0 0
M  V30 27 C -5.3875 -13.3619 0.0 0
M  V30 28 C -8.01 -14.8572 0.0 0
M  V30 29 C -5.3993 -14.8572 0.0 0
M  V30 30 C -6.7165 -15.5929 0.0 0
M  V30 END ATOM
M  V30 BEGIN BOND
M  V30 1 1 1 2
M  V30 2 2 2 3
M  V30 3 1 2 4
M  V30 4 1 3 5
M  V30 5 2 4 6
M  V30 6 2 5 7
M  V30 7 1 8 7 CFG=3
M  V30 8 1 8 9
M  V30 9 1 8 10
M  V30 10 2 9 11
M  V30 11 1 9 12
M  V30 12 1 10 13
M  V30 13 1 10 14
M  V30 14 1 15 12 CFG=1
M  V30 15 1 15 16
M  V30 16 1 15 17
M  V30 17 3 16 18
M  V30 18 2 17 19
M  V30 19 1 17 20
M  V30 20 1 19 21
M  V30 21 2 20 22
M  V30 22 1 21 23
M  V30 23 2 21 24
M  V30 24 1 23 25
M  V30 25 2 25 26
M  V30 26 1 25 27
M  V30 27 1 26 28
M  V30 28 2 27 29
M  V30 29 2 28 30
M  V30 30 1 6 7
M  V30 31 1 22 24
M  V30 32 1 29 30
M  V30 END BOND
M  V30 BEGIN COLLECTION
M  V30 MDLV30/STEABS ATOMS=(2 8 15)
M  V30 END COLLECTION
M  V30 END CTAB
M  END
>  <Molecule Name>
cis-Fenvalerate

>  <Order (spectra)>
85

>  <NAME>
cis-Fenvalerate

>  <Molecular Formula>
C25H22NO3Cl

>  <Monoisotopic Mass>
419.128821

>  <SMILES>
CC(C)[C@H](C(=O)O[C@H](C#N)C1=CC=CC(OC2=CC=CC=C2)=C1)C1=CC=C(Cl)C=C1

>  <InChI>
InChI=1S/C25H22ClNO3/c1-17(2)24(18-11-13-20(26)14-12-18)25(28)30-23(16-27)19-7-6-10-22(15-19)29-21-8-4-3-5-9-21/h3-15,17,23-24H,1-2H3/t23-,24+/m1/s1

>  <InChIKey>
NYPJDWWKZLNGGM-RPWUZVMVSA-N

>  <Kingdom>
Organic compounds

>  <Superclass>
Lipids and lipid-like molecules

>  <Class>
Fatty Acyls

>  <Subclass>
Fatty acid esters

>  <Parent Level 1>
Pyrethroids

>  <Parent Level 2>


>  <Parent Level 3>


>  <cLogP>
5.6229

>  <cLogS>
-7.095

>  <Druglikeness>
-5.9255

>  <NP-class probability>
0.67

>  <SmilesFragFp 3>


>  <MS_READY_SMILES>
CC(C)C(C(=O)OC(C#N)C1=CC=CC(OC2=CC=CC=C2)=C1)C1=CC=C(Cl)C=C1

>  <MS_READY_InChI>
InChI=1S/C25H22ClNO3/c1-17(2)24(18-11-13-20(26)14-12-18)25(28)30-23(16-27)19-7-6-10-22(15-19)29-21-8-4-3-5-9-21/h3-15,17,23-24H,1-2H3

>  <QSAR_READY_SMILES>
CC(C)C(C(=O)OC(C#N)C1=CC=CC(OC2=CC=CC=C2)=C1)C1=CC=C(Cl)C=C1

>  <QSAR_READY_InChI>
InChI=1S/C25H22ClNO3/c1-17(2)24(18-11-13-20(26)14-12-18)25(28)30-23(16-27)19-7-6-10-22(15-19)29-21-8-4-3-5-9-21/h3-15,17,23-24H,1-2H3

>  <DTXSID>
DTXSID4032667

>  <DTXCID>
DTXCID2012667

>  <CASRN>
66230-04-4

>  <EXPOCAST_MEDIAN_EXPOSURE_PREDICTION_MG/KG-BW/DAY>
1.11E-06

>  <BIOCONCENTRATION_FACTOR_TEST_PRED>
240.991

>  <BOILING_POINT_DEGC_TEST_PRED>
456.288

>  <48HR_DAPHNIA_LC50_MOL/L_TEST_PRED>
3.08E-09

>  <DENSITY_G/CM^3_TEST_PRED>
1.223

>  <DEVTOX_TEST_PRED>
0.75

>  <96HR_FATHEAD_MINNOW_MOL/L_TEST_PRED>
6.95E-09

>  <FLASH_POINT_DEGC_TEST_PRED>
285.904

>  <MELTING_POINT_DEGC_TEST_PRED>
85.445

>  <AMES_MUTAGENICITY_TEST_PRED>
0.3

>  <ORAL_RAT_LD50_MOL/KG_TEST_PRED>
0.000693426

>  <SURFACE_TENSION_DYN/CM_TEST_PRED>
-

>  <THERMAL_CONDUCTIVITY_MW/(M*K)_TEST_PRED>
152.593

>  <TETRAHYMENA_PYRIFORMIS_IGC50_MOL/L_TEST_PRED>
5.97E-07

>  <VISCOSITY_CP_CP_TEST_PRED>
-

>  <VAPOR_PRESSURE_MMHG_TEST_PRED>
1.31E-09

>  <WATER_SOLUBILITY_MOL/L_TEST_PRED>
2.82E-07

>  <ATMOSPHERIC_HYDROXYLATION_RATE_(AOH)_CM3/MOLECULE*SEC_OPERA_PRED>
2.50E-11

>  <BIOCONCENTRATION_FACTOR_OPERA_PRED>
707.188

>  <BIODEGRADATION_HALF_LIFE_DAYS_DAYS_OPERA_PRED>
3.54557

>  <BOILING_POINT_DEGC_OPERA_PRED>
434.889

>  <HENRYS_LAW_ATM-M3/MOLE_OPERA_PRED>
8.23E-08

>  <OPERA_KM_DAYS_OPERA_PRED>
4.89496

>  <OCTANOL_AIR_PARTITION_COEFF_LOGKOA_OPERA_PRED>
11.6877

>  <SOIL_ADSORPTION_COEFFICIENT_KOC_L/KG_OPERA_PRED>
5415.87

>  <OCTANOL_WATER_PARTITION_LOGP_OPERA_PRED>
6.1996

>  <MELTING_POINT_DEGC_OPERA_PRED>
52.3713

>  <VAPOR_PRESSURE_MMHG_OPERA_PRED>
1.50E-09

>  <WATER_SOLUBILITY_MOL/L_OPERA_PRED>
3.06E-09

>  <Shape Index>
0.56667

>  <Molecular Flexibility>
0.51096

>  <Molecular Complexity>
0.78115

>  <Electronegative Atoms>
5

>  <Stereo Centers>
2

>  <Rotatable Bonds>
8

>  <Rings Closures>
3

>  <Aromatic Rings>
3

>  <Aromatic Atoms>
18

>  <Amides>
0

>  <Amines>
0

>  <Aromatic Nitrogens>
0

>  <Shape Index 2>
0.56667

>  <Molecular Flexibility 2>
0.51096

>  <Molecular Complexity 2>
0.78115

>  <Non-C/H Atoms>
5

>  <Electronegative Atoms 2>
5

>  <Stereo Centers 2>
2

>  <Rotatable Bonds 2>
8

>  <Rings Closures 2>
3

>  <Aromatic Rings 2>
3

>  <Aromatic Atoms 2>
18

>  <sp3-Atoms>
7

>  <Amides 2>
0

>  <Amines 2>
0

>  <Aromatic Nitrogens 2>
0

>  <Basic Nitrogens>
0

$$$$
trans-Fenvalerate
Actelion Java MolfileCreator 2.0

  0  0  0  0  0  0              0 V3000
M  V30 BEGIN CTAB
M  V30 COUNTS 30 32 0 0 0
M  V30 BEGIN ATOM
M  V30 1 Cl 0.0 0.0 0.0 0
M  V30 2 C -0.0118 -1.4952 0.0 0
M  V30 3 C -1.329 -2.2309 0.0 0
M  V30 4 C 1.2816 -2.2309 0.0 0
M  V30 5 C -1.3409 -3.7261 0.0 0
M  V30 6 C 1.2697 -3.7261 0.0 0
M  V30 7 C -0.0474 -4.4619 0.0 0
M  V30 8 C -0.0593 -5.9571 0.0 0
M  V30 9 C -1.3765 -6.6928 0.0 0
M  V30 10 C 1.2341 -6.6928 0.0 0
M  V30 11 O -1.3884 -8.188 0.0 0
M  V30 12 O -2.6937 -5.9333 0.0 0
M  V30 13 C 2.5276 -5.9333 0.0 0
M  V30 14 C 1.2222 -8.188 0.0 0
M  V30 15 C -4.0109 -6.6691 0.0 0
M  V30 16 C -5.3281 -5.9096 0.0 0
M  V30 17 C -4.0228 -8.1643 0.0 0
M  V30 18 N -6.6453 -5.1501 0.0 0
M  V30 19 C -5.34 -8.9 0.0 0
M  V30 20 C -2.7293 -8.9 0.0 0
M  V30 21 C -5.3519 -10.3953 0.0 0
M  V30 22 C -2.7412 -10.3953 0.0 0
M  V30 23 O -6.6691 -11.131 0.0 0
M  V30 24 C -4.0584 -11.131 0.0 0
M  V30 25 C -6.6809 -12.6262 0.0 0
M  V30 26 C -7.9982 -13.3619 0.0 0
M  V30 27 C -5.3875 -13.3619 0.0 0
M  V30 28 C -8.01 -14.8572 0.0 0
M  V30 29 C -5.3993 -14.8572 0.0 0
M  V30 30 C -6.7165 -15.5929 0.0 0
M  V30 END ATOM
M  V30 BEGIN BOND
M  V30 1 1 1 2
M  V30 2 2 2 3
M  V30 3 1 2 4
M  V30 4 1 3 5
M  V30 5 2 4 6
M  V30 6 2 5 7
M  V30 7 1 7 8
M  V30 8 1 8 9
M  V30 9 1 8 10
M  V30 10 2 9 11
M  V30 11 1 9 12
M  V30 12 1 10 13
M  V30 13 1 10 14
M  V30 14 1 12 15
M  V30 15 1 15 16
M  V30 16 1 15 17
M  V30 17 3 16 18
M  V30 18 2 17 19
M  V30 19 1 17 20
M  V30 20 1 19 21
M  V30 21 2 20 22
M  V30 22 1 21 23
M  V30 23 2 21 24
M  V30 24 1 23 25
M  V30 25 2 25 26
M  V30 26 1 25 27
M  V30 27 1 26 28
M  V30 28 2 27 29
M  V30 29 2 28 30
M  V30 30 1 6 7
M  V30 31 1 22 24
M  V30 32 1 29 30
M  V30 END BOND
M  V30 END CTAB
M  END
>  <Molecule Name>
trans-Fenvalerate

>  <Order (spectra)>
86

>  <NAME>
trans-Fenvalerate

>  <Molecular Formula>
C25H22NO3Cl

>  <Monoisotopic Mass>
419.128821

>  <SMILES>
CC(C)C(C(=O)OC(C#N)C1=CC=CC(OC2=CC=CC=C2)=C1)C1=CC=C(Cl)C=C1

>  <InChI>
InChI=1S/C25H22ClNO3/c1-17(2)24(18-11-13-20(26)14-12-18)25(28)30-23(16-27)19-7-6-10-22(15-19)29-21-8-4-3-5-9-21/h3-15,17,23-24H,1-2H3

>  <InChIKey>
NYPJDWWKZLNGGM-UHFFFAOYSA-N

>  <Kingdom>
Organic compounds

>  <Superclass>
Lipids and lipid-like molecules

>  <Class>
Fatty Acyls

>  <Subclass>
Fatty acid esters

>  <Parent Level 1>
Pyrethroids

>  <Parent Level 2>


>  <Parent Level 3>


>  <cLogP>
5.6229

>  <cLogS>
-7.095

>  <Druglikeness>
-5.9255

>  <NP-class probability>
0.67

>  <SmilesFragFp 3>


>  <MS_READY_SMILES>
CC(C)C(C(=O)OC(C#N)C1=CC=CC(OC2=CC=CC=C2)=C1)C1=CC=C(Cl)C=C1

>  <MS_READY_InChI>
InChI=1S/C25H22ClNO3/c1-17(2)24(18-11-13-20(26)14-12-18)25(28)30-23(16-27)19-7-6-10-22(15-19)29-21-8-4-3-5-9-21/h3-15,17,23-24H,1-2H3

>  <QSAR_READY_SMILES>
CC(C)C(C(=O)OC(C#N)C1=CC=CC(OC2=CC=CC=C2)=C1)C1=CC=C(Cl)C=C1

>  <QSAR_READY_InChI>
InChI=1S/C25H22ClNO3/c1-17(2)24(18-11-13-20(26)14-12-18)25(28)30-23(16-27)19-7-6-10-22(15-19)29-21-8-4-3-5-9-21/h3-15,17,23-24H,1-2H3

>  <DTXSID>
DTXSID101017940

>  <DTXCID>
DTXCID30621

>  <CASRN>
51630-58-1

>  <EXPOCAST_MEDIAN_EXPOSURE_PREDICTION_MG/KG-BW/DAY>
4.80E-06

>  <BIOCONCENTRATION_FACTOR_TEST_PRED>
295.121

>  <BOILING_POINT_DEGC_TEST_PRED>
456.288

>  <48HR_DAPHNIA_LC50_MOL/L_TEST_PRED>
3.14E-09

>  <DENSITY_G/CM^3_TEST_PRED>
1.223

>  <DEVTOX_TEST_PRED>
0.75

>  <96HR_FATHEAD_MINNOW_MOL/L_TEST_PRED>
5.61E-09

>  <FLASH_POINT_DEGC_TEST_PRED>
285.904

>  <MELTING_POINT_DEGC_TEST_PRED>
89.278

>  <AMES_MUTAGENICITY_TEST_PRED>
0.3

>  <ORAL_RAT_LD50_MOL/KG_TEST_PRED>
0.000909913

>  <SURFACE_TENSION_DYN/CM_TEST_PRED>
-

>  <THERMAL_CONDUCTIVITY_MW/(M*K)_TEST_PRED>
152.593

>  <TETRAHYMENA_PYRIFORMIS_IGC50_MOL/L_TEST_PRED>
5.97E-07

>  <VISCOSITY_CP_CP_TEST_PRED>
-

>  <VAPOR_PRESSURE_MMHG_TEST_PRED>
1.31E-09

>  <WATER_SOLUBILITY_MOL/L_TEST_PRED>
6.79E-08

>  <ATMOSPHERIC_HYDROXYLATION_RATE_(AOH)_CM3/MOLECULE*SEC_OPERA_PRED>
2.50E-11

>  <BIOCONCENTRATION_FACTOR_OPERA_PRED>
707.188

>  <BIODEGRADATION_HALF_LIFE_DAYS_DAYS_OPERA_PRED>
3.54557

>  <BOILING_POINT_DEGC_OPERA_PRED>
434.889

>  <HENRYS_LAW_ATM-M3/MOLE_OPERA_PRED>
8.23E-08

>  <OPERA_KM_DAYS_OPERA_PRED>
4.89496

>  <OCTANOL_AIR_PARTITION_COEFF_LOGKOA_OPERA_PRED>
11.6877

>  <SOIL_ADSORPTION_COEFFICIENT_KOC_L/KG_OPERA_PRED>
5415.87

>  <OCTANOL_WATER_PARTITION_LOGP_OPERA_PRED>
6.1996

>  <MELTING_POINT_DEGC_OPERA_PRED>
52.3713

>  <VAPOR_PRESSURE_MMHG_OPERA_PRED>
1.50E-09

>  <WATER_SOLUBILITY_MOL/L_OPERA_PRED>
3.06E-09

>  <Shape Index>
0.56667

>  <Molecular Flexibility>
0.52646

>  <Molecular Complexity>
0.78115

>  <Electronegative Atoms>
5

>  <Stereo Centers>
2

>  <Rotatable Bonds>
8

>  <Rings Closures>
3

>  <Aromatic Rings>
3

>  <Aromatic Atoms>
18

>  <Amides>
0

>  <Amines>
0

>  <Aromatic Nitrogens>
0

>  <Shape Index 2>
0.56667

>  <Molecular Flexibility 2>
0.52646

>  <Molecular Complexity 2>
0.78115

>  <Non-C/H Atoms>
5

>  <Electronegative Atoms 2>
5

>  <Stereo Centers 2>
2

>  <Rotatable Bonds 2>
8

>  <Rings Closures 2>
3

>  <Aromatic Rings 2>
3

>  <Aromatic Atoms 2>
18

>  <sp3-Atoms>
7

>  <Amides 2>
0

>  <Amines 2>
0

>  <Aromatic Nitrogens 2>
0

>  <Basic Nitrogens>
0

$$$$
Deltamethrin
Actelion Java MolfileCreator 2.0

  0  0  0  0  0  0              0 V3000
M  V30 BEGIN CTAB
M  V30 COUNTS 28 30 0 0 0
M  V30 BEGIN ATOM
M  V30 1 Br 0.0 0.0 0.0 0
M  V30 2 C -1.3151 -0.7464 0.0 0
M  V30 3 Br -1.327 -2.2393 0.0 0
M  V30 4 C -2.6303 0.0118 0.0 0
M  V30 5 C -3.9454 -0.7345 0.0 0 CFG=2
M  V30 6 C -5.462 -0.7227 0.0 0
M  V30 7 C -4.7037 -2.026 0.0 0 CFG=2
M  V30 8 C -6.2203 0.5924 0.0 0
M  V30 9 C -6.9786 -0.7108 0.0 0
M  V30 10 C -4.7156 -3.5189 0.0 0
M  V30 11 O -3.4241 -4.2535 0.0 0
M  V30 12 O -6.0307 -4.2535 0.0 0
M  V30 13 C -6.0426 -5.7464 0.0 0 CFG=2
M  V30 14 C -7.3577 -6.4928 0.0 0
M  V30 15 C -4.7511 -6.4928 0.0 0
M  V30 16 N -8.6729 -7.2393 0.0 0
M  V30 17 C -4.763 -7.9857 0.0 0
M  V30 18 C -3.4597 -5.7345 0.0 0
M  V30 19 C -3.4715 -8.7321 0.0 0
M  V30 20 C -2.1682 -6.481 0.0 0
M  V30 21 O -3.4834 -10.225 0.0 0
M  V30 22 C -2.18 -7.9739 0.0 0
M  V30 23 C -2.1919 -10.9715 0.0 0
M  V30 24 C -2.2037 -12.4644 0.0 0
M  V30 25 C -0.9004 -10.2132 0.0 0
M  V30 26 C -0.9123 -13.2108 0.0 0
M  V30 27 C 0.3909 -10.9596 0.0 0
M  V30 28 C 0.3791 -12.4525 0.0 0
M  V30 END ATOM
M  V30 BEGIN BOND
M  V30 1 1 1 2
M  V30 2 1 2 3
M  V30 3 2 2 4
M  V30 4 1 5 4 CFG=1
M  V30 5 1 5 6
M  V30 6 1 5 7
M  V30 7 1 6 8
M  V30 8 1 6 9
M  V30 9 1 7 10 CFG=1
M  V30 10 2 10 11
M  V30 11 1 10 12
M  V30 12 1 13 12 CFG=1
M  V30 13 1 13 14
M  V30 14 1 13 15
M  V30 15 3 14 16
M  V30 16 2 15 17
M  V30 17 1 15 18
M  V30 18 1 17 19
M  V30 19 2 18 20
M  V30 20 1 19 21
M  V30 21 2 19 22
M  V30 22 1 21 23
M  V30 23 2 23 24
M  V30 24 1 23 25
M  V30 25 1 24 26
M  V30 26 2 25 27
M  V30 27 2 26 28
M  V30 28 1 6 7
M  V30 29 1 20 22
M  V30 30 1 27 28
M  V30 END BOND
M  V30 BEGIN COLLECTION
M  V30 MDLV30/STEABS ATOMS=(3 5 7 13)
M  V30 END COLLECTION
M  V30 END CTAB
M  END
>  <Molecule Name>
Deltamethrin

>  <Order (spectra)>
87

>  <NAME>
Deltamethrin

>  <Molecular Formula>
C22H19NO3Br2

>  <Monoisotopic Mass>
502.973166

>  <SMILES>
CC1(C)[C@@H](C=C(Br)Br)[C@H]1C(=O)O[C@H](C#N)C1=CC=CC(OC2=CC=CC=C2)=C1

>  <InChI>
InChI=1S/C22H19Br2NO3/c1-22(2)17(12-19(23)24)20(22)21(26)28-18(13-25)14-7-6-10-16(11-14)27-15-8-4-3-5-9-15/h3-12,17-18,20H,1-2H3/t17-,18+,20+/m0/s1

>  <InChIKey>
OWZREIFADZCYQD-NSHGMRRFSA-N

>  <Kingdom>
Organic compounds

>  <Superclass>
Lipids and lipid-like molecules

>  <Class>
Fatty Acyls

>  <Subclass>
Fatty acid esters

>  <Parent Level 1>
Pyrethroids

>  <Parent Level 2>


>  <Parent Level 3>


>  <cLogP>
5.6032

>  <cLogS>
-6.972

>  <Druglikeness>
-9.445

>  <NP-class probability>
0.82

>  <SmilesFragFp 3>


>  <MS_READY_SMILES>
CC1(C)C(C=C(Br)Br)C1C(=O)OC(C#N)C1=CC=CC(OC2=CC=CC=C2)=C1

>  <MS_READY_InChI>
InChI=1S/C22H19Br2NO3/c1-22(2)17(12-19(23)24)20(22)21(26)28-18(13-25)14-7-6-10-16(11-14)27-15-8-4-3-5-9-15/h3-12,17-18,20H,1-2H3

>  <QSAR_READY_SMILES>
CC1(C)C(C=C(Br)Br)C1C(=O)OC(C#N)C1=CC=CC(OC2=CC=CC=C2)=C1

>  <QSAR_READY_InChI>
InChI=1S/C22H19Br2NO3/c1-22(2)17(12-19(23)24)20(22)21(26)28-18(13-25)14-7-6-10-16(11-14)27-15-8-4-3-5-9-15/h3-12,17-18,20H,1-2H3

>  <DTXSID>
DTXSID8020381

>  <DTXCID>
DTXCID20381

>  <CASRN>
52918-63-5

>  <EXPOCAST_MEDIAN_EXPOSURE_PREDICTION_MG/KG-BW/DAY>
2.39E-07

>  <BIOCONCENTRATION_FACTOR_TEST_PRED>
192.752

>  <BOILING_POINT_DEGC_TEST_PRED>
466.968

>  <48HR_DAPHNIA_LC50_MOL/L_TEST_PRED>
4.97E-10

>  <DENSITY_G/CM^3_TEST_PRED>
1.897

>  <DEVTOX_TEST_PRED>
-

>  <96HR_FATHEAD_MINNOW_MOL/L_TEST_PRED>
6.90E-09

>  <FLASH_POINT_DEGC_TEST_PRED>
268.121

>  <MELTING_POINT_DEGC_TEST_PRED>
98.189

>  <AMES_MUTAGENICITY_TEST_PRED>
0.031

>  <ORAL_RAT_LD50_MOL/KG_TEST_PRED>
0.000086896

>  <SURFACE_TENSION_DYN/CM_TEST_PRED>
-

>  <THERMAL_CONDUCTIVITY_MW/(M*K)_TEST_PRED>
-

>  <TETRAHYMENA_PYRIFORMIS_IGC50_MOL/L_TEST_PRED>
-

>  <VISCOSITY_CP_CP_TEST_PRED>
-

>  <VAPOR_PRESSURE_MMHG_TEST_PRED>
1.64E-09

>  <WATER_SOLUBILITY_MOL/L_TEST_PRED>
3.56E-08

>  <ATMOSPHERIC_HYDROXYLATION_RATE_(AOH)_CM3/MOLECULE*SEC_OPERA_PRED>
3.42E-11

>  <BIOCONCENTRATION_FACTOR_OPERA_PRED>
323.804

>  <BIODEGRADATION_HALF_LIFE_DAYS_DAYS_OPERA_PRED>
3.35386

>  <BOILING_POINT_DEGC_OPERA_PRED>
430.074

>  <HENRYS_LAW_ATM-M3/MOLE_OPERA_PRED>
1.87E-09

>  <OPERA_KM_DAYS_OPERA_PRED>
3.23366

>  <OCTANOL_AIR_PARTITION_COEFF_LOGKOA_OPERA_PRED>
11.6883

>  <SOIL_ADSORPTION_COEFFICIENT_KOC_L/KG_OPERA_PRED>
62323.3

>  <OCTANOL_WATER_PARTITION_LOGP_OPERA_PRED>
6.20043

>  <MELTING_POINT_DEGC_OPERA_PRED>
99.9373

>  <VAPOR_PRESSURE_MMHG_OPERA_PRED>
1.49E-08

>  <WATER_SOLUBILITY_MOL/L_OPERA_PRED>
1.86E-09

>  <Shape Index>
0.57143

>  <Molecular Flexibility>
0.4443

>  <Molecular Complexity>
0.79105

>  <Electronegative Atoms>
6

>  <Stereo Centers>
3

>  <Rotatable Bonds>
7

>  <Rings Closures>
3

>  <Aromatic Rings>
2

>  <Aromatic Atoms>
12

>  <Amides>
0

>  <Amines>
0

>  <Aromatic Nitrogens>
0

>  <Shape Index 2>
0.57143

>  <Molecular Flexibility 2>
0.4443

>  <Molecular Complexity 2>
0.79105

>  <Non-C/H Atoms>
6

>  <Electronegative Atoms 2>
6

>  <Stereo Centers 2>
3

>  <Rotatable Bonds 2>
7

>  <Rings Closures 2>
3

>  <Aromatic Rings 2>
2

>  <Aromatic Atoms 2>
12

>  <sp3-Atoms>
8

>  <Amides 2>
0

>  <Amines 2>
0

>  <Aromatic Nitrogens 2>
0

>  <Basic Nitrogens>
0

$$$$
lambda-Cyhalothrin
Actelion Java MolfileCreator 2.0

  0  0  0  0  0  0              0 V3000
M  V30 BEGIN CTAB
M  V30 COUNTS 31 33 0 0 0
M  V30 BEGIN ATOM
M  V30 1 Cl 0.0 0.0 0.0 0
M  V30 2 C -0.0118 1.516 0.0 0
M  V30 3 C -1.3265 2.2741 0.0 0
M  V30 4 C 1.2791 2.2741 0.0 0
M  V30 5 C -2.6412 1.5279 0.0 0 CFG=2
M  V30 6 F 2.0253 0.983 0.0 0
M  V30 7 F 2.5702 3.0321 0.0 0
M  V30 8 F 0.5211 3.5888 0.0 0
M  V30 9 C -4.1573 1.5397 0.0 0
M  V30 10 C -3.3993 0.2368 0.0 0 CFG=2
M  V30 11 C -4.9154 2.8544 0.0 0
M  V30 12 C -5.6734 1.5516 0.0 0
M  V30 13 C -3.4111 -1.2555 0.0 0
M  V30 14 O -2.1201 -1.9898 0.0 0
M  V30 15 O -4.7258 -1.9898 0.0 0
M  V30 16 C -4.7377 -3.4822 0.0 0 CFG=2
M  V30 17 C -6.0524 -4.2284 0.0 0
M  V30 18 C -3.4467 -4.2284 0.0 0
M  V30 19 N -7.3671 -4.9746 0.0 0
M  V30 20 C -3.4585 -5.7208 0.0 0
M  V30 21 C -2.1556 -3.4703 0.0 0
M  V30 22 C -2.1675 -6.467 0.0 0
M  V30 23 C -0.8646 -4.2165 0.0 0
M  V30 24 O -2.1793 -7.9594 0.0 0
M  V30 25 C -0.8764 -5.7089 0.0 0
M  V30 26 C -0.8883 -8.7056 0.0 0
M  V30 27 C -0.9001 -10.1979 0.0 0
M  V30 28 C 0.4027 -7.9475 0.0 0
M  V30 29 C 0.3908 -10.9441 0.0 0
M  V30 30 C 1.6937 -8.6937 0.0 0
M  V30 31 C 1.6818 -10.1861 0.0 0
M  V30 END ATOM
M  V30 BEGIN BOND
M  V30 1 1 1 2
M  V30 2 2 2 3
M  V30 3 1 2 4
M  V30 4 1 5 3 CFG=1
M  V30 5 1 4 6
M  V30 6 1 4 7
M  V30 7 1 4 8
M  V30 8 1 5 9
M  V30 9 1 5 10
M  V30 10 1 9 11
M  V30 11 1 9 12
M  V30 12 1 10 13 CFG=1
M  V30 13 2 13 14
M  V30 14 1 13 15
M  V30 15 1 16 15 CFG=1
M  V30 16 1 16 17
M  V30 17 1 16 18
M  V30 18 3 17 19
M  V30 19 2 18 20
M  V30 20 1 18 21
M  V30 21 1 20 22
M  V30 22 2 21 23
M  V30 23 1 22 24
M  V30 24 2 22 25
M  V30 25 1 24 26
M  V30 26 2 26 27
M  V30 27 1 26 28
M  V30 28 1 27 29
M  V30 29 2 28 30
M  V30 30 2 29 31
M  V30 31 1 9 10
M  V30 32 1 23 25
M  V30 33 1 30 31
M  V30 END BOND
M  V30 BEGIN COLLECTION
M  V30 MDLV30/STEABS ATOMS=(3 5 10 16)
M  V30 END COLLECTION
M  V30 END CTAB
M  END
>  <Molecule Name>
lambda-Cyhalothrin

>  <Order (spectra)>
89

>  <NAME>
lambda-Cyhalothrin

>  <Molecular Formula>
C23H19NO3ClF3

>  <Monoisotopic Mass>
449.100555

>  <SMILES>
CC1(C)[C@@H](\C=C(/Cl)C(F)(F)F)[C@H]1C(=O)O[C@H](C#N)C1=CC=CC(OC2=CC=CC=C2)=C1

>  <InChI>
InChI=1S/C23H19ClF3NO3/c1-22(2)17(12-19(24)23(25,26)27)20(22)21(29)31-18(13-28)14-7-6-10-16(11-14)30-15-8-4-3-5-9-15/h3-12,17-18,20H,1-2H3/t17-,18+,20+/m0/s1

>  <InChIKey>
ZXQYGBMAQZUVMI-GCMPRSNUSA-N

>  <Kingdom>
Organic compounds

>  <Superclass>
Lipids and lipid-like molecules

>  <Class>
Fatty Acyls

>  <Subclass>
Fatty acid esters

>  <Parent Level 1>
Pyrethroids

>  <Parent Level 2>


>  <Parent Level 3>


>  <cLogP>
5.2655

>  <cLogS>
-7.182

>  <Druglikeness>
-12.548

>  <NP-class probability>
0.94

>  <SmilesFragFp 3>


>  <MS_READY_SMILES>
CC1(C)C(C=C(Cl)C(F)(F)F)C1C(=O)OC(C#N)C1=CC=CC(OC2=CC=CC=C2)=C1

>  <MS_READY_InChI>
InChI=1S/C23H19ClF3NO3/c1-22(2)17(12-19(24)23(25,26)27)20(22)21(29)31-18(13-28)14-7-6-10-16(11-14)30-15-8-4-3-5-9-15/h3-12,17-18,20H,1-2H3

>  <QSAR_READY_SMILES>
CC1(C)C(C=C(Cl)C(F)(F)F)C1C(=O)OC(C#N)C1=CC=CC(OC2=CC=CC=C2)=C1

>  <QSAR_READY_InChI>
InChI=1S/C23H19ClF3NO3/c1-22(2)17(12-19(24)23(25,26)27)20(22)21(29)31-18(13-28)14-7-6-10-16(11-14)30-15-8-4-3-5-9-15/h3-12,17-18,20H,1-2H3

>  <DTXSID>
DTXSID1034501

>  <DTXCID>
DTXCID5012559

>  <CASRN>
76703-62-3

>  <EXPOCAST_MEDIAN_EXPOSURE_PREDICTION_MG/KG-BW/DAY>
3.91E-06

>  <BIOCONCENTRATION_FACTOR_TEST_PRED>
342.768

>  <BOILING_POINT_DEGC_TEST_PRED>
431.019

>  <48HR_DAPHNIA_LC50_MOL/L_TEST_PRED>
2.74E-09

>  <DENSITY_G/CM^3_TEST_PRED>
1.347

>  <DEVTOX_TEST_PRED>
0.956

>  <96HR_FATHEAD_MINNOW_MOL/L_TEST_PRED>
3.27E-09

>  <FLASH_POINT_DEGC_TEST_PRED>
268.133

>  <MELTING_POINT_DEGC_TEST_PRED>
66.094

>  <AMES_MUTAGENICITY_TEST_PRED>
-0.114

>  <ORAL_RAT_LD50_MOL/KG_TEST_PRED>
0.000820352

>  <SURFACE_TENSION_DYN/CM_TEST_PRED>
-

>  <THERMAL_CONDUCTIVITY_MW/(M*K)_TEST_PRED>
-

>  <TETRAHYMENA_PYRIFORMIS_IGC50_MOL/L_TEST_PRED>
-

>  <VISCOSITY_CP_CP_TEST_PRED>
-

>  <VAPOR_PRESSURE_MMHG_TEST_PRED>
3.10E-09

>  <WATER_SOLUBILITY_MOL/L_TEST_PRED>
7.10E-08

>  <ATMOSPHERIC_HYDROXYLATION_RATE_(AOH)_CM3/MOLECULE*SEC_OPERA_PRED>
3.40E-11

>  <BIOCONCENTRATION_FACTOR_OPERA_PRED>
133.562

>  <BIODEGRADATION_HALF_LIFE_DAYS_DAYS_OPERA_PRED>
3.54485

>  <BOILING_POINT_DEGC_OPERA_PRED>
422.641

>  <HENRYS_LAW_ATM-M3/MOLE_OPERA_PRED>
1.12E-08

>  <OPERA_KM_DAYS_OPERA_PRED>
9.66227

>  <OCTANOL_AIR_PARTITION_COEFF_LOGKOA_OPERA_PRED>
11.6907

>  <SOIL_ADSORPTION_COEFFICIENT_KOC_L/KG_OPERA_PRED>
181452

>  <OCTANOL_WATER_PARTITION_LOGP_OPERA_PRED>
6.7988

>  <MELTING_POINT_DEGC_OPERA_PRED>
49.3639

>  <VAPOR_PRESSURE_MMHG_OPERA_PRED>
7.50E-09

>  <WATER_SOLUBILITY_MOL/L_OPERA_PRED>
2.20E-09

>  <Shape Index>
0.54839

>  <Molecular Flexibility>
0.43701

>  <Molecular Complexity>
0.79871

>  <Electronegative Atoms>
8

>  <Stereo Centers>
3

>  <Rotatable Bonds>
8

>  <Rings Closures>
3

>  <Aromatic Rings>
2

>  <Aromatic Atoms>
12

>  <Amides>
0

>  <Amines>
0

>  <Aromatic Nitrogens>
0

>  <Shape Index 2>
0.54839

>  <Molecular Flexibility 2>
0.43701

>  <Molecular Complexity 2>
0.79871

>  <Non-C/H Atoms>
8

>  <Electronegative Atoms 2>
8

>  <Stereo Centers 2>
3

>  <Rotatable Bonds 2>
8

>  <Rings Closures 2>
3

>  <Aromatic Rings 2>
2

>  <Aromatic Atoms 2>
12

>  <sp3-Atoms>
9

>  <Amides 2>
0

>  <Amines 2>
0

>  <Aromatic Nitrogens 2>
0

>  <Basic Nitrogens>
0

$$$$
cis-Permethrin
Actelion Java MolfileCreator 2.0

  0  0  0  0  0  0              0 V3000
M  V30 BEGIN CTAB
M  V30 COUNTS 26 28 0 0 0
M  V30 BEGIN ATOM
M  V30 1 Cl 0.0 0.0 0.0 0
M  V30 2 C -0.0117 1.5061 0.0 0
M  V30 3 Cl -1.3179 2.2592 0.0 0
M  V30 4 C 1.2708 2.2592 0.0 0
M  V30 5 C 1.259 3.7654 0.0 0 CFG=2
M  V30 6 C 2.0004 5.0716 0.0 0
M  V30 7 C 0.5059 5.0716 0.0 0 CFG=2
M  V30 8 C 3.483 5.0833 0.0 0
M  V30 9 C 2.7417 6.3777 0.0 0
M  V30 10 C -0.8001 5.8247 0.0 0
M  V30 11 O -0.8119 7.3308 0.0 0
M  V30 12 O -2.1063 5.0833 0.0 0
M  V30 13 C -3.4124 5.8364 0.0 0
M  V30 14 C -4.7185 5.0951 0.0 0
M  V30 15 C -6.0247 5.8482 0.0 0
M  V30 16 C -4.7303 3.6124 0.0 0
M  V30 17 C -7.3308 5.1069 0.0 0
M  V30 18 C -6.0365 2.8711 0.0 0
M  V30 19 O -8.637 5.86 0.0 0
M  V30 20 C -7.3426 3.6242 0.0 0
M  V30 21 C -9.9431 5.1186 0.0 0
M  V30 22 C -11.2493 5.8717 0.0 0
M  V30 23 C -9.9549 3.636 0.0 0
M  V30 24 C -12.5554 5.1304 0.0 0
M  V30 25 C -11.261 2.8946 0.0 0
M  V30 26 C -12.5672 3.6477 0.0 0
M  V30 END ATOM
M  V30 BEGIN BOND
M  V30 1 1 1 2
M  V30 2 1 2 3
M  V30 3 2 2 4
M  V30 4 1 5 4 CFG=1
M  V30 5 1 5 6
M  V30 6 1 5 7
M  V30 7 1 6 8
M  V30 8 1 6 9
M  V30 9 1 7 10 CFG=1
M  V30 10 2 10 11
M  V30 11 1 10 12
M  V30 12 1 12 13
M  V30 13 1 13 14
M  V30 14 2 14 15
M  V30 15 1 14 16
M  V30 16 1 15 17
M  V30 17 2 16 18
M  V30 18 1 17 19
M  V30 19 2 17 20
M  V30 20 1 19 21
M  V30 21 2 21 22
M  V30 22 1 21 23
M  V30 23 1 22 24
M  V30 24 2 23 25
M  V30 25 2 24 26
M  V30 26 1 6 7
M  V30 27 1 18 20
M  V30 28 1 25 26
M  V30 END BOND
M  V30 BEGIN COLLECTION
M  V30 MDLV30/STEABS ATOMS=(2 5 7)
M  V30 END COLLECTION
M  V30 END CTAB
M  END
>  <Molecule Name>
cis-Permethrin

>  <Order (spectra)>
92

>  <NAME>
cis-Permethrin

>  <Molecular Formula>
C21H20O3Cl2

>  <Monoisotopic Mass>
390.078949

>  <SMILES>
CC1(C)[C@@H](C=C(Cl)Cl)[C@H]1C(=O)OCC1=CC=CC(OC2=CC=CC=C2)=C1

>  <InChI>
InChI=1S/C21H20Cl2O3/c1-21(2)17(12-18(22)23)19(21)20(24)25-13-14-7-6-10-16(11-14)26-15-8-4-3-5-9-15/h3-12,17,19H,13H2,1-2H3/t17-,19+/m0/s1

>  <InChIKey>
RLLPVAHGXHCWKJ-HKUYNNGSSA-N

>  <Kingdom>
Organic compounds

>  <Superclass>
Lipids and lipid-like molecules

>  <Class>
Fatty Acyls

>  <Subclass>
Fatty acid esters

>  <Parent Level 1>
Pyrethroids

>  <Parent Level 2>


>  <Parent Level 3>


>  <cLogP>
5.8089

>  <cLogS>
-6.469

>  <Druglikeness>
0.92471

>  <NP-class probability>
0.41

>  <SmilesFragFp 3>


>  <MS_READY_SMILES>
CC1(C)C(C=C(Cl)Cl)C1C(=O)OCC1=CC(OC2=CC=CC=C2)=CC=C1

>  <MS_READY_InChI>
InChI=1S/C21H20Cl2O3/c1-21(2)17(12-18(22)23)19(21)20(24)25-13-14-7-6-10-16(11-14)26-15-8-4-3-5-9-15/h3-12,17,19H,13H2,1-2H3

>  <QSAR_READY_SMILES>
CC1(C)C(C=C(Cl)Cl)C1C(=O)OCC1=CC(OC2=CC=CC=C2)=CC=C1

>  <QSAR_READY_InChI>
InChI=1S/C21H20Cl2O3/c1-21(2)17(12-18(22)23)19(21)20(24)25-13-14-7-6-10-16(11-14)26-15-8-4-3-5-9-15/h3-12,17,19H,13H2,1-2H3

>  <DTXSID>
DTXSID5052208

>  <DTXCID>
DTXCID8018338

>  <CASRN>
54774-45-7

>  <EXPOCAST_MEDIAN_EXPOSURE_PREDICTION_MG/KG-BW/DAY>
5.07E-06

>  <BIOCONCENTRATION_FACTOR_TEST_PRED>
727.78

>  <BOILING_POINT_DEGC_TEST_PRED>
412.391

>  <48HR_DAPHNIA_LC50_MOL/L_TEST_PRED>
1.55E-08

>  <DENSITY_G/CM^3_TEST_PRED>
1.254

>  <DEVTOX_TEST_PRED>
0.816

>  <96HR_FATHEAD_MINNOW_MOL/L_TEST_PRED>
2.38E-08

>  <FLASH_POINT_DEGC_TEST_PRED>
225.544

>  <MELTING_POINT_DEGC_TEST_PRED>
61.987

>  <AMES_MUTAGENICITY_TEST_PRED>
0.272

>  <ORAL_RAT_LD50_MOL/KG_TEST_PRED>
0.00164059

>  <SURFACE_TENSION_DYN/CM_TEST_PRED>
-

>  <THERMAL_CONDUCTIVITY_MW/(M*K)_TEST_PRED>
132.956

>  <TETRAHYMENA_PYRIFORMIS_IGC50_MOL/L_TEST_PRED>
-

>  <VISCOSITY_CP_CP_TEST_PRED>
-

>  <VAPOR_PRESSURE_MMHG_TEST_PRED>
2.05E-08

>  <WATER_SOLUBILITY_MOL/L_TEST_PRED>
5.61E-08

>  <ATMOSPHERIC_HYDROXYLATION_RATE_(AOH)_CM3/MOLECULE*SEC_OPERA_PRED>
3.32E-11

>  <BIOCONCENTRATION_FACTOR_OPERA_PRED>
446.953

>  <BIODEGRADATION_HALF_LIFE_DAYS_DAYS_OPERA_PRED>
3.35145

>  <BOILING_POINT_DEGC_OPERA_PRED>
401.446

>  <HENRYS_LAW_ATM-M3/MOLE_OPERA_PRED>
2.39E-08

>  <OPERA_KM_DAYS_OPERA_PRED>
2.34418

>  <OCTANOL_AIR_PARTITION_COEFF_LOGKOA_OPERA_PRED>
11.6839

>  <SOIL_ADSORPTION_COEFFICIENT_KOC_L/KG_OPERA_PRED>
63169.8

>  <OCTANOL_WATER_PARTITION_LOGP_OPERA_PRED>
6.49886

>  <MELTING_POINT_DEGC_OPERA_PRED>
34.2828

>  <VAPOR_PRESSURE_MMHG_OPERA_PRED>
2.19E-08

>  <WATER_SOLUBILITY_MOL/L_OPERA_PRED>
2.13E-07

>  <Shape Index>
0.61538

>  <Molecular Flexibility>
0.48688

>  <Molecular Complexity>
0.75402

>  <Electronegative Atoms>
5

>  <Stereo Centers>
2

>  <Rotatable Bonds>
7

>  <Rings Closures>
3

>  <Aromatic Rings>
2

>  <Aromatic Atoms>
12

>  <Amides>
0

>  <Amines>
0

>  <Aromatic Nitrogens>
0

>  <Shape Index 2>
0.61538

>  <Molecular Flexibility 2>
0.48688

>  <Molecular Complexity 2>
0.75402

>  <Non-C/H Atoms>
5

>  <Electronegative Atoms 2>
5

>  <Stereo Centers 2>
2

>  <Rotatable Bonds 2>
7

>  <Rings Closures 2>
3

>  <Aromatic Rings 2>
2

>  <Aromatic Atoms 2>
12

>  <sp3-Atoms>
8

>  <Amides 2>
0

>  <Amines 2>
0

>  <Aromatic Nitrogens 2>
0

>  <Basic Nitrogens>
0

$$$$
trans-Permethrin
Actelion Java MolfileCreator 2.0

  0  0  0  0  0  0              0 V3000
M  V30 BEGIN CTAB
M  V30 COUNTS 26 28 0 0 0
M  V30 BEGIN ATOM
M  V30 1 Cl 0.0 0.0 0.0 0
M  V30 2 C -0.0117 1.5061 0.0 0
M  V30 3 Cl -1.3179 2.2592 0.0 0
M  V30 4 C 1.2708 2.2592 0.0 0
M  V30 5 C 1.259 3.7654 0.0 0 CFG=1
M  V30 6 C 2.0004 5.0716 0.0 0
M  V30 7 C 0.5059 5.0716 0.0 0 CFG=2
M  V30 8 C 3.483 5.0833 0.0 0
M  V30 9 C 2.7417 6.3777 0.0 0
M  V30 10 C -0.8001 5.8247 0.0 0
M  V30 11 O -0.8119 7.3308 0.0 0
M  V30 12 O -2.1063 5.0833 0.0 0
M  V30 13 C -3.4124 5.8364 0.0 0
M  V30 14 C -4.7185 5.0951 0.0 0
M  V30 15 C -6.0247 5.8482 0.0 0
M  V30 16 C -4.7303 3.6124 0.0 0
M  V30 17 C -7.3308 5.1069 0.0 0
M  V30 18 C -6.0365 2.8711 0.0 0
M  V30 19 O -8.637 5.86 0.0 0
M  V30 20 C -7.3426 3.6242 0.0 0
M  V30 21 C -9.9431 5.1186 0.0 0
M  V30 22 C -11.2493 5.8717 0.0 0
M  V30 23 C -9.9549 3.636 0.0 0
M  V30 24 C -12.5554 5.1304 0.0 0
M  V30 25 C -11.261 2.8946 0.0 0
M  V30 26 C -12.5672 3.6477 0.0 0
M  V30 END ATOM
M  V30 BEGIN BOND
M  V30 1 1 1 2
M  V30 2 1 2 3
M  V30 3 2 2 4
M  V30 4 1 5 4 CFG=3
M  V30 5 1 5 6
M  V30 6 1 5 7
M  V30 7 1 6 8
M  V30 8 1 6 9
M  V30 9 1 7 10 CFG=1
M  V30 10 2 10 11
M  V30 11 1 10 12
M  V30 12 1 12 13
M  V30 13 1 13 14
M  V30 14 2 14 15
M  V30 15 1 14 16
M  V30 16 1 15 17
M  V30 17 2 16 18
M  V30 18 1 17 19
M  V30 19 2 17 20
M  V30 20 1 19 21
M  V30 21 2 21 22
M  V30 22 1 21 23
M  V30 23 1 22 24
M  V30 24 2 23 25
M  V30 25 2 24 26
M  V30 26 1 6 7
M  V30 27 1 18 20
M  V30 28 1 25 26
M  V30 END BOND
M  V30 BEGIN COLLECTION
M  V30 MDLV30/STEABS ATOMS=(2 5 7)
M  V30 END COLLECTION
M  V30 END CTAB
M  END
>  <Molecule Name>
trans-Permethrin

>  <Order (spectra)>
93

>  <NAME>
trans-Permethrin

>  <Molecular Formula>
C21H20O3Cl2

>  <Monoisotopic Mass>
390.078949

>  <SMILES>
CC1(C)[C@H](C=C(Cl)Cl)[C@H]1C(=O)OCC1=CC=CC(OC2=CC=CC=C2)=C1

>  <InChI>
InChI=1S/C21H20Cl2O3/c1-21(2)17(12-18(22)23)19(21)20(24)25-13-14-7-6-10-16(11-14)26-15-8-4-3-5-9-15/h3-12,17,19H,13H2,1-2H3/t17-,19-/m1/s1

>  <InChIKey>
RLLPVAHGXHCWKJ-MJGOQNOKSA-N

>  <Kingdom>
Organic compounds

>  <Superclass>
Lipids and lipid-like molecules

>  <Class>
Fatty Acyls

>  <Subclass>
Fatty acid esters

>  <Parent Level 1>
Pyrethroids

>  <Parent Level 2>


>  <Parent Level 3>


>  <cLogP>
5.8089

>  <cLogS>
-6.469

>  <Druglikeness>
0.92471

>  <NP-class probability>
0.41

>  <SmilesFragFp 3>


>  <MS_READY_SMILES>
CC1(C)C(C=C(Cl)Cl)C1C(=O)OCC1=CC(OC2=CC=CC=C2)=CC=C1

>  <MS_READY_InChI>
InChI=1S/C21H20Cl2O3/c1-21(2)17(12-18(22)23)19(21)20(24)25-13-14-7-6-10-16(11-14)26-15-8-4-3-5-9-15/h3-12,17,19H,13H2,1-2H3

>  <QSAR_READY_SMILES>
CC1(C)C(C=C(Cl)Cl)C1C(=O)OCC1=CC(OC2=CC=CC=C2)=CC=C1

>  <QSAR_READY_InChI>
InChI=1S/C21H20Cl2O3/c1-21(2)17(12-18(22)23)19(21)20(24)25-13-14-7-6-10-16(11-14)26-15-8-4-3-5-9-15/h3-12,17,19H,13H2,1-2H3

>  <DTXSID>
DTXSID8058116

>  <DTXCID>
DTXCID2017611

>  <CASRN>
51877-74-8

>  <EXPOCAST_MEDIAN_EXPOSURE_PREDICTION_MG/KG-BW/DAY>
5.07E-06

>  <BIOCONCENTRATION_FACTOR_TEST_PRED>
727.78

>  <BOILING_POINT_DEGC_TEST_PRED>
412.391

>  <48HR_DAPHNIA_LC50_MOL/L_TEST_PRED>
1.55E-08

>  <DENSITY_G/CM^3_TEST_PRED>
1.254

>  <DEVTOX_TEST_PRED>
0.816

>  <96HR_FATHEAD_MINNOW_MOL/L_TEST_PRED>
2.38E-08

>  <FLASH_POINT_DEGC_TEST_PRED>
225.544

>  <MELTING_POINT_DEGC_TEST_PRED>
61.987

>  <AMES_MUTAGENICITY_TEST_PRED>
0.272

>  <ORAL_RAT_LD50_MOL/KG_TEST_PRED>
0.00164059

>  <SURFACE_TENSION_DYN/CM_TEST_PRED>
-

>  <THERMAL_CONDUCTIVITY_MW/(M*K)_TEST_PRED>
132.956

>  <TETRAHYMENA_PYRIFORMIS_IGC50_MOL/L_TEST_PRED>
-

>  <VISCOSITY_CP_CP_TEST_PRED>
-

>  <VAPOR_PRESSURE_MMHG_TEST_PRED>
2.05E-08

>  <WATER_SOLUBILITY_MOL/L_TEST_PRED>
5.61E-08

>  <ATMOSPHERIC_HYDROXYLATION_RATE_(AOH)_CM3/MOLECULE*SEC_OPERA_PRED>
3.32E-11

>  <BIOCONCENTRATION_FACTOR_OPERA_PRED>
446.953

>  <BIODEGRADATION_HALF_LIFE_DAYS_DAYS_OPERA_PRED>
3.35145

>  <BOILING_POINT_DEGC_OPERA_PRED>
401.446

>  <HENRYS_LAW_ATM-M3/MOLE_OPERA_PRED>
2.39E-08

>  <OPERA_KM_DAYS_OPERA_PRED>
2.34418

>  <OCTANOL_AIR_PARTITION_COEFF_LOGKOA_OPERA_PRED>
11.6839

>  <SOIL_ADSORPTION_COEFFICIENT_KOC_L/KG_OPERA_PRED>
63169.8

>  <OCTANOL_WATER_PARTITION_LOGP_OPERA_PRED>
6.49886

>  <MELTING_POINT_DEGC_OPERA_PRED>
34.2828

>  <VAPOR_PRESSURE_MMHG_OPERA_PRED>
2.19E-08

>  <WATER_SOLUBILITY_MOL/L_OPERA_PRED>
2.13E-07

>  <Shape Index>
0.61538

>  <Molecular Flexibility>
0.48802

>  <Molecular Complexity>
0.75402

>  <Electronegative Atoms>
5

>  <Stereo Centers>
2

>  <Rotatable Bonds>
7

>  <Rings Closures>
3

>  <Aromatic Rings>
2

>  <Aromatic Atoms>
12

>  <Amides>
0

>  <Amines>
0

>  <Aromatic Nitrogens>
0

>  <Shape Index 2>
0.61538

>  <Molecular Flexibility 2>
0.48802

>  <Molecular Complexity 2>
0.75402

>  <Non-C/H Atoms>
5

>  <Electronegative Atoms 2>
5

>  <Stereo Centers 2>
2

>  <Rotatable Bonds 2>
7

>  <Rings Closures 2>
3

>  <Aromatic Rings 2>
2

>  <Aromatic Atoms 2>
12

>  <sp3-Atoms>
8

>  <Amides 2>
0

>  <Amines 2>
0

>  <Aromatic Nitrogens 2>
0

>  <Basic Nitrogens>
0

$$$$
cis-Allethrin
Actelion Java MolfileCreator 2.0

  0  0  0  0  0  0              0 V3000
M  V30 BEGIN CTAB
M  V30 COUNTS 22 23 0 0 0
M  V30 BEGIN ATOM
M  V30 1 O 0.0 0.0 0.0 0
M  V30 2 C -1.4949 0.1647 0.0 0
M  V30 3 C -2.2482 1.4713 0.0 0
M  V30 4 C -2.5072 -0.9299 0.0 0
M  V30 5 C -3.7196 1.1771 0.0 0
M  V30 6 C -1.6479 2.8485 0.0 0
M  V30 7 C -3.8844 -0.306 0.0 0
M  V30 8 C -4.8378 2.1894 0.0 0
M  V30 9 C -0.1765 3.0133 0.0 0
M  V30 10 O -5.191 -1.0476 0.0 0
M  V30 11 C 0.4237 4.3905 0.0 0
M  V30 12 C -6.4975 -0.2942 0.0 0
M  V30 13 O -6.5093 1.2124 0.0 0
M  V30 14 C -7.8041 -1.0358 0.0 0
M  V30 15 C -9.3108 -1.024 0.0 0
M  V30 16 C -8.5575 -2.3188 0.0 0
M  V30 17 C -10.0642 0.2825 0.0 0
M  V30 18 C -10.8175 -1.0123 0.0 0
M  V30 19 C -8.5692 -3.802 0.0 0
M  V30 20 C -9.8758 -4.5318 0.0 0
M  V30 21 C -11.1824 -3.7784 0.0 0
M  V30 22 C -9.8876 -6.0149 0.0 0
M  V30 END ATOM
M  V30 BEGIN BOND
M  V30 1 2 1 2
M  V30 2 1 2 3
M  V30 3 1 2 4
M  V30 4 2 3 5
M  V30 5 1 3 6
M  V30 6 1 4 7
M  V30 7 1 5 8
M  V30 8 1 6 9
M  V30 9 1 7 10
M  V30 10 2 9 11
M  V30 11 1 10 12
M  V30 12 2 12 13
M  V30 13 1 12 14
M  V30 14 1 14 15
M  V30 15 1 14 16
M  V30 16 1 15 17
M  V30 17 1 15 18
M  V30 18 1 16 19
M  V30 19 2 19 20
M  V30 20 1 20 21
M  V30 21 1 20 22
M  V30 22 1 5 7
M  V30 23 1 15 16
M  V30 END BOND
M  V30 END CTAB
M  END
>  <Molecule Name>
cis-Allethrin

>  <Order (spectra)>
94

>  <NAME>
cis-Allethrin

>  <Molecular Formula>
C19H26O3

>  <Monoisotopic Mass>
302.188195

>  <SMILES>
CC(C)=CC1C(C(=O)OC2CC(=O)C(CC=C)=C2C)C1(C)C

>  <InChI>
InChI=1S/C19H26O3/c1-7-8-13-12(4)16(10-15(13)20)22-18(21)17-14(9-11(2)3)19(17,5)6/h7,9,14,16-17H,1,8,10H2,2-6H3

>  <InChIKey>
ZCVAOQKBXKSDMS-UHFFFAOYSA-N

>  <Kingdom>
Organic compounds

>  <Superclass>
Lipids and lipid-like molecules

>  <Class>
Fatty Acyls

>  <Subclass>
Fatty acid esters

>  <Parent Level 1>
Pyrethroids

>  <Parent Level 2>


>  <Parent Level 3>


>  <cLogP>
4.4136

>  <cLogS>
-3.491

>  <Druglikeness>
-1.7903

>  <NP-class probability>
0.95

>  <SmilesFragFp 3>


>  <MS_READY_SMILES>
CC(C)=CC1C(C(=O)OC2CC(=O)C(CC=C)=C2C)C1(C)C

>  <MS_READY_InChI>
InChI=1S/C19H26O3/c1-7-8-13-12(4)16(10-15(13)20)22-18(21)17-14(9-11(2)3)19(17,5)6/h7,9,14,16-17H,1,8,10H2,2-6H3

>  <QSAR_READY_SMILES>
CC(C)=CC1C(C(=O)OC2CC(=O)C(CC=C)=C2C)C1(C)C

>  <QSAR_READY_InChI>
InChI=1S/C19H26O3/c1-7-8-13-12(4)16(10-15(13)20)22-18(21)17-14(9-11(2)3)19(17,5)6/h7,9,14,16-17H,1,8,10H2,2-6H3

>  <DTXSID>
DTXSID8035180

>  <DTXCID>
DTXCID6015180

>  <CASRN>
584-79-2

>  <EXPOCAST_MEDIAN_EXPOSURE_PREDICTION_MG/KG-BW/DAY>
1.62E-07

>  <BIOCONCENTRATION_FACTOR_TEST_PRED>
93.3254

>  <BOILING_POINT_DEGC_TEST_PRED>
328.638

>  <48HR_DAPHNIA_LC50_MOL/L_TEST_PRED>
9.04E-08

>  <DENSITY_G/CM^3_TEST_PRED>
1.072

>  <DEVTOX_TEST_PRED>
0.608

>  <96HR_FATHEAD_MINNOW_MOL/L_TEST_PRED>
1.21E-07

>  <FLASH_POINT_DEGC_TEST_PRED>
171.548

>  <MELTING_POINT_DEGC_TEST_PRED>
36.548

>  <AMES_MUTAGENICITY_TEST_PRED>
0.72

>  <ORAL_RAT_LD50_MOL/KG_TEST_PRED>
0.00185353

>  <SURFACE_TENSION_DYN/CM_TEST_PRED>
33.585

>  <THERMAL_CONDUCTIVITY_MW/(M*K)_TEST_PRED>
-

>  <TETRAHYMENA_PYRIFORMIS_IGC50_MOL/L_TEST_PRED>
-

>  <VISCOSITY_CP_CP_TEST_PRED>
-

>  <VAPOR_PRESSURE_MMHG_TEST_PRED>
2.37E-06

>  <WATER_SOLUBILITY_MOL/L_TEST_PRED>
1.82E-06

>  <ATMOSPHERIC_HYDROXYLATION_RATE_(AOH)_CM3/MOLECULE*SEC_OPERA_PRED>
1.98E-10

>  <BIOCONCENTRATION_FACTOR_OPERA_PRED>
28.908

>  <BIODEGRADATION_HALF_LIFE_DAYS_DAYS_OPERA_PRED>
3.34827

>  <BOILING_POINT_DEGC_OPERA_PRED>
331.941

>  <HENRYS_LAW_ATM-M3/MOLE_OPERA_PRED>
8.99E-06

>  <OPERA_KM_DAYS_OPERA_PRED>
0.456395

>  <OCTANOL_AIR_PARTITION_COEFF_LOGKOA_OPERA_PRED>
9.16112

>  <SOIL_ADSORPTION_COEFFICIENT_KOC_L/KG_OPERA_PRED>
713.287

>  <OCTANOL_WATER_PARTITION_LOGP_OPERA_PRED>
4.78026

>  <MELTING_POINT_DEGC_OPERA_PRED>
-39.792

>  <VAPOR_PRESSURE_MMHG_OPERA_PRED>
0.000001207

>  <WATER_SOLUBILITY_MOL/L_OPERA_PRED>
1.04E-06

>  <Shape Index>
0.59091

>  <Molecular Flexibility>
0.42437

>  <Molecular Complexity>
0.79161

>  <Electronegative Atoms>
3

>  <Stereo Centers>
3

>  <Rotatable Bonds>
6

>  <Rings Closures>
2

>  <Aromatic Rings>
0

>  <Aromatic Atoms>
0

>  <Amides>
0

>  <Amines>
0

>  <Aromatic Nitrogens>
0

>  <Shape Index 2>
0.59091

>  <Molecular Flexibility 2>
0.42437

>  <Molecular Complexity 2>
0.79161

>  <Non-C/H Atoms>
3

>  <Electronegative Atoms 2>
3

>  <Stereo Centers 2>
3

>  <Rotatable Bonds 2>
6

>  <Rings Closures 2>
2

>  <Aromatic Rings 2>
0

>  <Aromatic Atoms 2>
0

>  <sp3-Atoms>
12

>  <Amides 2>
0

>  <Amines 2>
0

>  <Aromatic Nitrogens 2>
0

>  <Basic Nitrogens>
0

$$$$
cis-Cypermethrin
Actelion Java MolfileCreator 2.0

  0  0  0  0  0  0              0 V3000
M  V30 BEGIN CTAB
M  V30 COUNTS 28 30 0 0 0
M  V30 BEGIN ATOM
M  V30 1 Cl 0.0 0.0 0.0 0
M  V30 2 C -1.3151 -0.7464 0.0 0
M  V30 3 Cl -1.327 -2.2393 0.0 0
M  V30 4 C -2.6303 0.0118 0.0 0
M  V30 5 C -3.9454 -0.7345 0.0 0 CFG=2
M  V30 6 C -5.462 -0.7227 0.0 0
M  V30 7 C -4.7037 -2.026 0.0 0 CFG=2
M  V30 8 C -6.2203 0.5924 0.0 0
M  V30 9 C -6.9786 -0.7108 0.0 0
M  V30 10 C -4.7156 -3.5189 0.0 0
M  V30 11 O -3.4241 -4.2535 0.0 0
M  V30 12 O -6.0307 -4.2535 0.0 0
M  V30 13 C -6.0426 -5.7464 0.0 0 CFG=2
M  V30 14 C -7.3577 -6.4928 0.0 0
M  V30 15 C -4.7511 -6.4928 0.0 0
M  V30 16 N -8.6729 -7.2393 0.0 0
M  V30 17 C -4.763 -7.9857 0.0 0
M  V30 18 C -3.4597 -5.7345 0.0 0
M  V30 19 C -3.4715 -8.7321 0.0 0
M  V30 20 C -2.1682 -6.481 0.0 0
M  V30 21 O -3.4834 -10.225 0.0 0
M  V30 22 C -2.18 -7.9739 0.0 0
M  V30 23 C -2.1919 -10.9715 0.0 0
M  V30 24 C -2.2037 -12.4644 0.0 0
M  V30 25 C -0.9004 -10.2132 0.0 0
M  V30 26 C -0.9123 -13.2108 0.0 0
M  V30 27 C 0.3909 -10.9596 0.0 0
M  V30 28 C 0.3791 -12.4525 0.0 0
M  V30 END ATOM
M  V30 BEGIN BOND
M  V30 1 1 1 2
M  V30 2 1 2 3
M  V30 3 2 2 4
M  V30 4 1 5 4 CFG=1
M  V30 5 1 5 6
M  V30 6 1 5 7
M  V30 7 1 6 8
M  V30 8 1 6 9
M  V30 9 1 7 10 CFG=1
M  V30 10 2 10 11
M  V30 11 1 10 12
M  V30 12 1 13 12 CFG=1
M  V30 13 1 13 14
M  V30 14 1 13 15
M  V30 15 3 14 16
M  V30 16 2 15 17
M  V30 17 1 15 18
M  V30 18 1 17 19
M  V30 19 2 18 20
M  V30 20 1 19 21
M  V30 21 2 19 22
M  V30 22 1 21 23
M  V30 23 2 23 24
M  V30 24 1 23 25
M  V30 25 1 24 26
M  V30 26 2 25 27
M  V30 27 2 26 28
M  V30 28 1 6 7
M  V30 29 1 20 22
M  V30 30 1 27 28
M  V30 END BOND
M  V30 BEGIN COLLECTION
M  V30 MDLV30/STEABS ATOMS=(3 5 7 13)
M  V30 END COLLECTION
M  V30 END CTAB
M  END
>  <Molecule Name>
cis-Cypermethrin

>  <Order (spectra)>
95

>  <NAME>
cis-Cypermethrin

>  <Molecular Formula>
C22H19NO3Cl2

>  <Monoisotopic Mass>
415.074198

>  <SMILES>
CC1(C)[C@@H](C=C(Cl)Cl)[C@H]1C(=O)O[C@H](C#N)C1=CC=CC(OC2=CC=CC=C2)=C1

>  <InChI>
InChI=1S/C22H19Cl2NO3/c1-22(2)17(12-19(23)24)20(22)21(26)28-18(13-25)14-7-6-10-16(11-14)27-15-8-4-3-5-9-15/h3-12,17-18,20H,1-2H3/t17-,18+,20+/m0/s1

>  <InChIKey>
KAATUXNTWXVJKI-NSHGMRRFSA-N

>  <Kingdom>
Organic compounds

>  <Superclass>
Lipids and lipid-like molecules

>  <Class>
Fatty Acyls

>  <Subclass>
Fatty acid esters

>  <Parent Level 1>
Pyrethroids

>  <Parent Level 2>


>  <Parent Level 3>


>  <cLogP>
5.3412

>  <cLogS>
-6.688

>  <Druglikeness>
-4.5036

>  <NP-class probability>
0.79

>  <SmilesFragFp 3>


>  <MS_READY_SMILES>
CC1(C)C(C=C(Cl)Cl)C1C(=O)OC(C#N)C1=CC=CC(OC2=CC=CC=C2)=C1

>  <MS_READY_InChI>
InChI=1S/C22H19Cl2NO3/c1-22(2)17(12-19(23)24)20(22)21(26)28-18(13-25)14-7-6-10-16(11-14)27-15-8-4-3-5-9-15/h3-12,17-18,20H,1-2H3

>  <QSAR_READY_SMILES>
CC1(C)C(C=C(Cl)Cl)C1C(=O)OC(C#N)C1=CC=CC(OC2=CC=CC=C2)=C1

>  <QSAR_READY_InChI>
InChI=1S/C22H19Cl2NO3/c1-22(2)17(12-19(23)24)20(22)21(26)28-18(13-25)14-7-6-10-16(11-14)27-15-8-4-3-5-9-15/h3-12,17-18,20H,1-2H3

>  <DTXSID>
DTXSID80274146

>  <DTXCID>
DTXCID50196563

>  <CASRN>
65731-84-2

>  <EXPOCAST_MEDIAN_EXPOSURE_PREDICTION_MG/KG-BW/DAY>
8.49E-06

>  <BIOCONCENTRATION_FACTOR_TEST_PRED>
741.31

>  <BOILING_POINT_DEGC_TEST_PRED>
445.159

>  <48HR_DAPHNIA_LC50_MOL/L_TEST_PRED>
2.29E-09

>  <DENSITY_G/CM^3_TEST_PRED>
1.292

>  <DEVTOX_TEST_PRED>
0.877

>  <96HR_FATHEAD_MINNOW_MOL/L_TEST_PRED>
5.77E-09

>  <FLASH_POINT_DEGC_TEST_PRED>
268.529

>  <MELTING_POINT_DEGC_TEST_PRED>
82.346

>  <AMES_MUTAGENICITY_TEST_PRED>
-0.004

>  <ORAL_RAT_LD50_MOL/KG_TEST_PRED>
0.00172982

>  <SURFACE_TENSION_DYN/CM_TEST_PRED>
-

>  <THERMAL_CONDUCTIVITY_MW/(M*K)_TEST_PRED>
-

>  <TETRAHYMENA_PYRIFORMIS_IGC50_MOL/L_TEST_PRED>
-

>  <VISCOSITY_CP_CP_TEST_PRED>
-

>  <VAPOR_PRESSURE_MMHG_TEST_PRED>
1.12E-09

>  <WATER_SOLUBILITY_MOL/L_TEST_PRED>
6.27E-08

>  <ATMOSPHERIC_HYDROXYLATION_RATE_(AOH)_CM3/MOLECULE*SEC_OPERA_PRED>
3.41E-11

>  <BIOCONCENTRATION_FACTOR_OPERA_PRED>
338.97

>  <BIODEGRADATION_HALF_LIFE_DAYS_DAYS_OPERA_PRED>
3.35135

>  <BOILING_POINT_DEGC_OPERA_PRED>
424.345

>  <HENRYS_LAW_ATM-M3/MOLE_OPERA_PRED>
2.07E-09

>  <OPERA_KM_DAYS_OPERA_PRED>
5.0024

>  <OCTANOL_AIR_PARTITION_COEFF_LOGKOA_OPERA_PRED>
11.7027

>  <SOIL_ADSORPTION_COEFFICIENT_KOC_L/KG_OPERA_PRED>
99845.4

>  <OCTANOL_WATER_PARTITION_LOGP_OPERA_PRED>
6.59788

>  <MELTING_POINT_DEGC_OPERA_PRED>
81.3899

>  <VAPOR_PRESSURE_MMHG_OPERA_PRED>
3.07E-09

>  <WATER_SOLUBILITY_MOL/L_OPERA_PRED>
3.58E-08

>  <Shape Index>
0.57143

>  <Molecular Flexibility>
0.4443

>  <Molecular Complexity>
0.79105

>  <Electronegative Atoms>
6

>  <Stereo Centers>
3

>  <Rotatable Bonds>
7

>  <Rings Closures>
3

>  <Aromatic Rings>
2

>  <Aromatic Atoms>
12

>  <Amides>
0

>  <Amines>
0

>  <Aromatic Nitrogens>
0

>  <Shape Index 2>
0.57143

>  <Molecular Flexibility 2>
0.4443

>  <Molecular Complexity 2>
0.79105

>  <Non-C/H Atoms>
6

>  <Electronegative Atoms 2>
6

>  <Stereo Centers 2>
3

>  <Rotatable Bonds 2>
7

>  <Rings Closures 2>
3

>  <Aromatic Rings 2>
2

>  <Aromatic Atoms 2>
12

>  <sp3-Atoms>
8

>  <Amides 2>
0

>  <Amines 2>
0

>  <Aromatic Nitrogens 2>
0

>  <Basic Nitrogens>
0

$$$$
trans-Cypermethrin
Actelion Java MolfileCreator 2.0

  0  0  0  0  0  0              0 V3000
M  V30 BEGIN CTAB
M  V30 COUNTS 28 30 0 0 0
M  V30 BEGIN ATOM
M  V30 1 Cl 0.0 0.0 0.0 0
M  V30 2 C -1.3151 -0.7464 0.0 0
M  V30 3 Cl -1.327 -2.2393 0.0 0
M  V30 4 C -2.6303 0.0118 0.0 0
M  V30 5 C -3.9454 -0.7345 0.0 0
M  V30 6 C -5.462 -0.7227 0.0 0
M  V30 7 C -4.7037 -2.026 0.0 0
M  V30 8 C -6.2203 0.5924 0.0 0
M  V30 9 C -6.9786 -0.7108 0.0 0
M  V30 10 C -4.7156 -3.5189 0.0 0
M  V30 11 O -3.4241 -4.2535 0.0 0
M  V30 12 O -6.0307 -4.2535 0.0 0
M  V30 13 C -6.0426 -5.7464 0.0 0
M  V30 14 C -7.3577 -6.4928 0.0 0
M  V30 15 C -4.7511 -6.4928 0.0 0
M  V30 16 N -8.6729 -7.2393 0.0 0
M  V30 17 C -4.763 -7.9857 0.0 0
M  V30 18 C -3.4597 -5.7345 0.0 0
M  V30 19 C -3.4715 -8.7321 0.0 0
M  V30 20 C -2.1682 -6.481 0.0 0
M  V30 21 O -3.4834 -10.225 0.0 0
M  V30 22 C -2.18 -7.9739 0.0 0
M  V30 23 C -2.1919 -10.9715 0.0 0
M  V30 24 C -2.2037 -12.4644 0.0 0
M  V30 25 C -0.9004 -10.2132 0.0 0
M  V30 26 C -0.9123 -13.2108 0.0 0
M  V30 27 C 0.3909 -10.9596 0.0 0
M  V30 28 C 0.3791 -12.4525 0.0 0
M  V30 END ATOM
M  V30 BEGIN BOND
M  V30 1 1 1 2
M  V30 2 1 2 3
M  V30 3 2 2 4
M  V30 4 1 4 5
M  V30 5 1 5 6
M  V30 6 1 5 7
M  V30 7 1 6 8
M  V30 8 1 6 9
M  V30 9 1 7 10
M  V30 10 2 10 11
M  V30 11 1 10 12
M  V30 12 1 12 13
M  V30 13 1 13 14
M  V30 14 1 13 15
M  V30 15 3 14 16
M  V30 16 2 15 17
M  V30 17 1 15 18
M  V30 18 1 17 19
M  V30 19 2 18 20
M  V30 20 1 19 21
M  V30 21 2 19 22
M  V30 22 1 21 23
M  V30 23 2 23 24
M  V30 24 1 23 25
M  V30 25 1 24 26
M  V30 26 2 25 27
M  V30 27 2 26 28
M  V30 28 1 6 7
M  V30 29 1 20 22
M  V30 30 1 27 28
M  V30 END BOND
M  V30 END CTAB
M  END
>  <Molecule Name>
trans-Cypermethrin

>  <Order (spectra)>
96

>  <NAME>
trans-Cypermethrin

>  <Molecular Formula>
C22H19NO3Cl2

>  <Monoisotopic Mass>
415.074198

>  <SMILES>
CC1(C)C(C=C(Cl)Cl)C1C(=O)OC(C#N)C1=CC=CC(OC2=CC=CC=C2)=C1

>  <InChI>
InChI=1S/C22H19Cl2NO3/c1-22(2)17(12-19(23)24)20(22)21(26)28-18(13-25)14-7-6-10-16(11-14)27-15-8-4-3-5-9-15/h3-12,17-18,20H,1-2H3

>  <InChIKey>
KAATUXNTWXVJKI-UHFFFAOYSA-N

>  <Kingdom>
Organic compounds

>  <Superclass>
Lipids and lipid-like molecules

>  <Class>
Fatty Acyls

>  <Subclass>
Fatty acid esters

>  <Parent Level 1>
Pyrethroids

>  <Parent Level 2>


>  <Parent Level 3>


>  <cLogP>
5.3412

>  <cLogS>
-6.688

>  <Druglikeness>
-4.5036

>  <NP-class probability>
0.79

>  <SmilesFragFp 3>


>  <MS_READY_SMILES>
CC1(C)C(C=C(Cl)Cl)C1C(=O)OC(C#N)C1=CC=CC(OC2=CC=CC=C2)=C1

>  <MS_READY_InChI>
InChI=1S/C22H19Cl2NO3/c1-22(2)17(12-19(23)24)20(22)21(26)28-18(13-25)14-7-6-10-16(11-14)27-15-8-4-3-5-9-15/h3-12,17-18,20H,1-2H3

>  <QSAR_READY_SMILES>
CC1(C)C(C=C(Cl)Cl)C1C(=O)OC(C#N)C1=CC=CC(OC2=CC=CC=C2)=C1

>  <QSAR_READY_InChI>
InChI=1S/C22H19Cl2NO3/c1-22(2)17(12-19(23)24)20(22)21(26)28-18(13-25)14-7-6-10-16(11-14)27-15-8-4-3-5-9-15/h3-12,17-18,20H,1-2H3

>  <DTXSID>
DTXSID1023998

>  <DTXCID>
DTXCID003998

>  <CASRN>
52315-07-8

>  <EXPOCAST_MEDIAN_EXPOSURE_PREDICTION_MG/KG-BW/DAY>
2.69E-07

>  <BIOCONCENTRATION_FACTOR_TEST_PRED>
741.31

>  <BOILING_POINT_DEGC_TEST_PRED>
445.159

>  <48HR_DAPHNIA_LC50_MOL/L_TEST_PRED>
2.29E-09

>  <DENSITY_G/CM^3_TEST_PRED>
1.292

>  <DEVTOX_TEST_PRED>
0.877

>  <96HR_FATHEAD_MINNOW_MOL/L_TEST_PRED>
5.77E-09

>  <FLASH_POINT_DEGC_TEST_PRED>
268.529

>  <MELTING_POINT_DEGC_TEST_PRED>
82.346

>  <AMES_MUTAGENICITY_TEST_PRED>
0.163

>  <ORAL_RAT_LD50_MOL/KG_TEST_PRED>
0.00172982

>  <SURFACE_TENSION_DYN/CM_TEST_PRED>
-

>  <THERMAL_CONDUCTIVITY_MW/(M*K)_TEST_PRED>
-

>  <TETRAHYMENA_PYRIFORMIS_IGC50_MOL/L_TEST_PRED>
-

>  <VISCOSITY_CP_CP_TEST_PRED>
-

>  <VAPOR_PRESSURE_MMHG_TEST_PRED>
1.12E-09

>  <WATER_SOLUBILITY_MOL/L_TEST_PRED>
6.27E-08

>  <ATMOSPHERIC_HYDROXYLATION_RATE_(AOH)_CM3/MOLECULE*SEC_OPERA_PRED>
3.41E-11

>  <BIOCONCENTRATION_FACTOR_OPERA_PRED>
338.97

>  <BIODEGRADATION_HALF_LIFE_DAYS_DAYS_OPERA_PRED>
3.35135

>  <BOILING_POINT_DEGC_OPERA_PRED>
424.345

>  <HENRYS_LAW_ATM-M3/MOLE_OPERA_PRED>
2.07E-09

>  <OPERA_KM_DAYS_OPERA_PRED>
5.0024

>  <OCTANOL_AIR_PARTITION_COEFF_LOGKOA_OPERA_PRED>
11.7027

>  <SOIL_ADSORPTION_COEFFICIENT_KOC_L/KG_OPERA_PRED>
99845.4

>  <OCTANOL_WATER_PARTITION_LOGP_OPERA_PRED>
6.59788

>  <MELTING_POINT_DEGC_OPERA_PRED>
81.3899

>  <VAPOR_PRESSURE_MMHG_OPERA_PRED>
3.07E-09

>  <WATER_SOLUBILITY_MOL/L_OPERA_PRED>
3.58E-08

>  <Shape Index>
0.57143

>  <Molecular Flexibility>
0.52249

>  <Molecular Complexity>
0.78821

>  <Electronegative Atoms>
6

>  <Stereo Centers>
3

>  <Rotatable Bonds>
7

>  <Rings Closures>
3

>  <Aromatic Rings>
2

>  <Aromatic Atoms>
12

>  <Amides>
0

>  <Amines>
0

>  <Aromatic Nitrogens>
0

>  <Shape Index 2>
0.57143

>  <Molecular Flexibility 2>
0.52249

>  <Molecular Complexity 2>
0.78821

>  <Non-C/H Atoms>
6

>  <Electronegative Atoms 2>
6

>  <Stereo Centers 2>
3

>  <Rotatable Bonds 2>
7

>  <Rings Closures 2>
3

>  <Aromatic Rings 2>
2

>  <Aromatic Atoms 2>
12

>  <sp3-Atoms>
8

>  <Amides 2>
0

>  <Amines 2>
0

>  <Aromatic Nitrogens 2>
0

>  <Basic Nitrogens>
0

$$$$
cis-Cyfluthrin_isomer1
Actelion Java MolfileCreator 2.0

  0  0  0  0  0  0              0 V3000
M  V30 BEGIN CTAB
M  V30 COUNTS 29 31 0 0 0
M  V30 BEGIN ATOM
M  V30 1 Cl 0.0 0.0 0.0 0
M  V30 2 C -1.3153 -0.7465 0.0 0
M  V30 3 Cl -1.3272 -2.2397 0.0 0
M  V30 4 C -2.6307 0.0118 0.0 0
M  V30 5 C -3.9461 -0.7347 0.0 0 CFG=2
M  V30 6 C -5.463 -0.7228 0.0 0
M  V30 7 C -4.7046 -2.0264 0.0 0 CFG=2
M  V30 8 C -6.2214 0.5925 0.0 0
M  V30 9 C -6.9799 -0.711 0.0 0
M  V30 10 C -4.7164 -3.5195 0.0 0
M  V30 11 O -3.4247 -4.2543 0.0 0
M  V30 12 O -6.0318 -4.2543 0.0 0
M  V30 13 C -6.0437 -5.7474 0.0 0 CFG=1
M  V30 14 C -7.3591 -6.494 0.0 0
M  V30 15 C -4.752 -6.494 0.0 0
M  V30 16 N -8.6745 -7.2406 0.0 0
M  V30 17 C -4.7638 -7.9871 0.0 0
M  V30 18 C -3.4603 -5.7356 0.0 0
M  V30 19 C -3.4721 -8.7337 0.0 0
M  V30 20 C -2.1686 -6.4821 0.0 0
M  V30 21 O -3.484 -10.2269 0.0 0
M  V30 22 C -2.1804 -7.9753 0.0 0
M  V30 23 C -2.1923 -10.9734 0.0 0
M  V30 24 F -0.8887 -8.7219 0.0 0
M  V30 25 C -2.2041 -12.4666 0.0 0
M  V30 26 C -0.9006 -10.215 0.0 0
M  V30 27 C -0.9124 -13.2132 0.0 0
M  V30 28 C 0.391 -10.9616 0.0 0
M  V30 29 C 0.3792 -12.4547 0.0 0
M  V30 END ATOM
M  V30 BEGIN BOND
M  V30 1 1 1 2
M  V30 2 1 2 3
M  V30 3 2 2 4
M  V30 4 1 5 4 CFG=1
M  V30 5 1 5 6
M  V30 6 1 5 7
M  V30 7 1 6 8
M  V30 8 1 6 9
M  V30 9 1 7 10 CFG=1
M  V30 10 2 10 11
M  V30 11 1 10 12
M  V30 12 1 13 12 CFG=3
M  V30 13 1 13 14
M  V30 14 1 13 15
M  V30 15 3 14 16
M  V30 16 2 15 17
M  V30 17 1 15 18
M  V30 18 1 17 19
M  V30 19 2 18 20
M  V30 20 1 19 21
M  V30 21 2 19 22
M  V30 22 1 21 23
M  V30 23 1 22 24
M  V30 24 2 23 25
M  V30 25 1 23 26
M  V30 26 1 25 27
M  V30 27 2 26 28
M  V30 28 2 27 29
M  V30 29 1 6 7
M  V30 30 1 20 22
M  V30 31 1 28 29
M  V30 END BOND
M  V30 BEGIN COLLECTION
M  V30 MDLV30/STEABS ATOMS=(3 5 7 13)
M  V30 END COLLECTION
M  V30 END CTAB
M  END
>  <Molecule Name>
cis-Cyfluthrin_isomer1

>  <Order (spectra)>
97

>  <NAME>
cis-Cyfluthrin_isomer1

>  <Molecular Formula>
C22H18NO3Cl2F

>  <Monoisotopic Mass>
433.064776

>  <SMILES>
CC1(C)[C@@H](C=C(Cl)Cl)[C@H]1C(=O)O[C@@H](C#N)C1=CC=C(F)C(OC2=CC=CC=C2)=C1

>  <InChI>
InChI=1S/C22H18Cl2FNO3/c1-22(2)15(11-19(23)24)20(22)21(27)29-18(12-26)13-8-9-16(25)17(10-13)28-14-6-4-3-5-7-14/h3-11,15,18,20H,1-2H3/t15-,18-,20+/m0/s1

>  <InChIKey>
QQODLKZGRKWIFG-QSFXBCCZSA-N

>  <Kingdom>
Organic compounds

>  <Superclass>
Lipids and lipid-like molecules

>  <Class>
Fatty Acyls

>  <Subclass>
Fatty acid esters

>  <Parent Level 1>
Pyrethroids

>  <Parent Level 2>


>  <Parent Level 3>


>  <cLogP>
5.442

>  <cLogS>
-7.002

>  <Druglikeness>
-5.8436

>  <NP-class probability>
0.5

>  <SmilesFragFp 3>


>  <MS_READY_SMILES>
CC1(C)C(C=C(Cl)Cl)C1C(=O)OC(C#N)C1=CC=C(F)C(OC2=CC=CC=C2)=C1

>  <MS_READY_InChI>
InChI=1S/C22H18Cl2FNO3/c1-22(2)15(11-19(23)24)20(22)21(27)29-18(12-26)13-8-9-16(25)17(10-13)28-14-6-4-3-5-7-14/h3-11,15,18,20H,1-2H3

>  <QSAR_READY_SMILES>
CC1(C)C(C=C(Cl)Cl)C1C(=O)OC(C#N)C1=CC=C(F)C(OC2=CC=CC=C2)=C1

>  <QSAR_READY_InChI>
InChI=1S/C22H18Cl2FNO3/c1-22(2)15(11-19(23)24)20(22)21(27)29-18(12-26)13-8-9-16(25)17(10-13)28-14-6-4-3-5-7-14/h3-11,15,18,20H,1-2H3

>  <DTXSID>
DTXSID3048108

>  <DTXCID>
DTXCID0028080

>  <CASRN>
86560-92-1

>  <EXPOCAST_MEDIAN_EXPOSURE_PREDICTION_MG/KG-BW/DAY>
5.85E-06

>  <BIOCONCENTRATION_FACTOR_TEST_PRED>
928.966

>  <BOILING_POINT_DEGC_TEST_PRED>
442.743

>  <48HR_DAPHNIA_LC50_MOL/L_TEST_PRED>
1.06E-09

>  <DENSITY_G/CM^3_TEST_PRED>
1.344

>  <DEVTOX_TEST_PRED>
0.873

>  <96HR_FATHEAD_MINNOW_MOL/L_TEST_PRED>
3.14E-09

>  <FLASH_POINT_DEGC_TEST_PRED>
272.713

>  <MELTING_POINT_DEGC_TEST_PRED>
76.638

>  <AMES_MUTAGENICITY_TEST_PRED>
0.002

>  <ORAL_RAT_LD50_MOL/KG_TEST_PRED>
0.00177419

>  <SURFACE_TENSION_DYN/CM_TEST_PRED>
-

>  <THERMAL_CONDUCTIVITY_MW/(M*K)_TEST_PRED>
-

>  <TETRAHYMENA_PYRIFORMIS_IGC50_MOL/L_TEST_PRED>
-

>  <VISCOSITY_CP_CP_TEST_PRED>
-

>  <VAPOR_PRESSURE_MMHG_TEST_PRED>
6.10E-10

>  <WATER_SOLUBILITY_MOL/L_TEST_PRED>
4.41E-08

>  <ATMOSPHERIC_HYDROXYLATION_RATE_(AOH)_CM3/MOLECULE*SEC_OPERA_PRED>
3.39E-11

>  <BIOCONCENTRATION_FACTOR_OPERA_PRED>
414.328

>  <BIODEGRADATION_HALF_LIFE_DAYS_DAYS_OPERA_PRED>
3.35162

>  <BOILING_POINT_DEGC_OPERA_PRED>
424.372

>  <HENRYS_LAW_ATM-M3/MOLE_OPERA_PRED>
4.45E-09

>  <OPERA_KM_DAYS_OPERA_PRED>
2.41845

>  <OCTANOL_AIR_PARTITION_COEFF_LOGKOA_OPERA_PRED>
11.705

>  <SOIL_ADSORPTION_COEFFICIENT_KOC_L/KG_OPERA_PRED>
99888.1

>  <OCTANOL_WATER_PARTITION_LOGP_OPERA_PRED>
5.95213

>  <MELTING_POINT_DEGC_OPERA_PRED>
60.1236

>  <VAPOR_PRESSURE_MMHG_OPERA_PRED>
1.52E-10

>  <WATER_SOLUBILITY_MOL/L_OPERA_PRED>
6.74E-09

>  <Shape Index>
0.55172

>  <Molecular Flexibility>
0.43215

>  <Molecular Complexity>
0.80998

>  <Electronegative Atoms>
7

>  <Stereo Centers>
3

>  <Rotatable Bonds>
7

>  <Rings Closures>
3

>  <Aromatic Rings>
2

>  <Aromatic Atoms>
12

>  <Amides>
0

>  <Amines>
0

>  <Aromatic Nitrogens>
0

>  <Shape Index 2>
0.55172

>  <Molecular Flexibility 2>
0.43215

>  <Molecular Complexity 2>
0.80998

>  <Non-C/H Atoms>
7

>  <Electronegative Atoms 2>
7

>  <Stereo Centers 2>
3

>  <Rotatable Bonds 2>
7

>  <Rings Closures 2>
3

>  <Aromatic Rings 2>
2

>  <Aromatic Atoms 2>
12

>  <sp3-Atoms>
8

>  <Amides 2>
0

>  <Amines 2>
0

>  <Aromatic Nitrogens 2>
0

>  <Basic Nitrogens>
0

$$$$
trans-Cyfluthrin_isomer1
Actelion Java MolfileCreator 2.0

  0  0  0  0  0  0              0 V3000
M  V30 BEGIN CTAB
M  V30 COUNTS 29 31 0 0 0
M  V30 BEGIN ATOM
M  V30 1 Cl 0.0 0.0 0.0 0
M  V30 2 C -1.3153 -0.7465 0.0 0
M  V30 3 Cl -1.3272 -2.2397 0.0 0
M  V30 4 C -2.6307 0.0118 0.0 0
M  V30 5 C -3.9461 -0.7347 0.0 0 CFG=2
M  V30 6 C -5.463 -0.7228 0.0 0
M  V30 7 C -4.7046 -2.0264 0.0 0 CFG=1
M  V30 8 C -6.2214 0.5925 0.0 0
M  V30 9 C -6.9799 -0.711 0.0 0
M  V30 10 C -4.7164 -3.5195 0.0 0
M  V30 11 O -3.4247 -4.2543 0.0 0
M  V30 12 O -6.0318 -4.2543 0.0 0
M  V30 13 C -6.0437 -5.7474 0.0 0 CFG=1
M  V30 14 C -7.3591 -6.494 0.0 0
M  V30 15 C -4.752 -6.494 0.0 0
M  V30 16 N -8.6745 -7.2406 0.0 0
M  V30 17 C -4.7638 -7.9871 0.0 0
M  V30 18 C -3.4603 -5.7356 0.0 0
M  V30 19 C -3.4721 -8.7337 0.0 0
M  V30 20 C -2.1686 -6.4821 0.0 0
M  V30 21 O -3.484 -10.2269 0.0 0
M  V30 22 C -2.1804 -7.9753 0.0 0
M  V30 23 C -2.1923 -10.9734 0.0 0
M  V30 24 F -0.8887 -8.7219 0.0 0
M  V30 25 C -2.2041 -12.4666 0.0 0
M  V30 26 C -0.9006 -10.215 0.0 0
M  V30 27 C -0.9124 -13.2132 0.0 0
M  V30 28 C 0.391 -10.9616 0.0 0
M  V30 29 C 0.3792 -12.4547 0.0 0
M  V30 END ATOM
M  V30 BEGIN BOND
M  V30 1 1 1 2
M  V30 2 1 2 3
M  V30 3 2 2 4
M  V30 4 1 5 4 CFG=1
M  V30 5 1 5 6
M  V30 6 1 5 7
M  V30 7 1 6 8
M  V30 8 1 6 9
M  V30 9 1 7 10 CFG=3
M  V30 10 2 10 11
M  V30 11 1 10 12
M  V30 12 1 13 12 CFG=3
M  V30 13 1 13 14
M  V30 14 1 13 15
M  V30 15 3 14 16
M  V30 16 2 15 17
M  V30 17 1 15 18
M  V30 18 1 17 19
M  V30 19 2 18 20
M  V30 20 1 19 21
M  V30 21 2 19 22
M  V30 22 1 21 23
M  V30 23 1 22 24
M  V30 24 2 23 25
M  V30 25 1 23 26
M  V30 26 1 25 27
M  V30 27 2 26 28
M  V30 28 2 27 29
M  V30 29 1 6 7
M  V30 30 1 20 22
M  V30 31 1 28 29
M  V30 END BOND
M  V30 BEGIN COLLECTION
M  V30 MDLV30/STEABS ATOMS=(3 5 7 13)
M  V30 END COLLECTION
M  V30 END CTAB
M  END
>  <Molecule Name>
trans-Cyfluthrin_isomer1

>  <Order (spectra)>
98

>  <NAME>
trans-Cyfluthrin_isomer1

>  <Molecular Formula>
C22H18NO3Cl2F

>  <Monoisotopic Mass>
433.064776

>  <SMILES>
CC1(C)[C@@H](C=C(Cl)Cl)[C@@H]1C(=O)O[C@@H](C#N)C1=CC=C(F)C(OC2=CC=CC=C2)=C1

>  <InChI>
InChI=1S/C22H18Cl2FNO3/c1-22(2)15(11-19(23)24)20(22)21(27)29-18(12-26)13-8-9-16(25)17(10-13)28-14-6-4-3-5-7-14/h3-11,15,18,20H,1-2H3/t15-,18-,20-/m0/s1

>  <InChIKey>
QQODLKZGRKWIFG-ZAAXVRCTSA-N

>  <Kingdom>
Organic compounds

>  <Superclass>
Lipids and lipid-like molecules

>  <Class>
Fatty Acyls

>  <Subclass>
Fatty acid esters

>  <Parent Level 1>
Pyrethroids

>  <Parent Level 2>


>  <Parent Level 3>


>  <cLogP>
5.442

>  <cLogS>
-7.002

>  <Druglikeness>
-5.8436

>  <NP-class probability>
0.5

>  <SmilesFragFp 3>


>  <MS_READY_SMILES>
CC1(C)C(C=C(Cl)Cl)C1C(=O)OC(C#N)C1=CC=C(F)C(OC2=CC=CC=C2)=C1

>  <MS_READY_InChI>
InChI=1S/C22H18Cl2FNO3/c1-22(2)15(11-19(23)24)20(22)21(27)29-18(12-26)13-8-9-16(25)17(10-13)28-14-6-4-3-5-7-14/h3-11,15,18,20H,1-2H3

>  <QSAR_READY_SMILES>
CC1(C)C(C=C(Cl)Cl)C1C(=O)OC(C#N)C1=CC=C(F)C(OC2=CC=CC=C2)=C1

>  <QSAR_READY_InChI>
InChI=1S/C22H18Cl2FNO3/c1-22(2)15(11-19(23)24)20(22)21(27)29-18(12-26)13-8-9-16(25)17(10-13)28-14-6-4-3-5-7-14/h3-11,15,18,20H,1-2H3

>  <DTXSID>
DTXSID8032330

>  <DTXCID>
DTXCID803898

>  <CASRN>
1820573-27-0

>  <EXPOCAST_MEDIAN_EXPOSURE_PREDICTION_MG/KG-BW/DAY>
-

>  <BIOCONCENTRATION_FACTOR_TEST_PRED>
928.966

>  <BOILING_POINT_DEGC_TEST_PRED>
442.743

>  <48HR_DAPHNIA_LC50_MOL/L_TEST_PRED>
1.06E-09

>  <DENSITY_G/CM^3_TEST_PRED>
1.344

>  <DEVTOX_TEST_PRED>
0.873

>  <96HR_FATHEAD_MINNOW_MOL/L_TEST_PRED>
3.14E-09

>  <FLASH_POINT_DEGC_TEST_PRED>
272.713

>  <MELTING_POINT_DEGC_TEST_PRED>
76.638

>  <AMES_MUTAGENICITY_TEST_PRED>
0.002

>  <ORAL_RAT_LD50_MOL/KG_TEST_PRED>
0.00177419

>  <SURFACE_TENSION_DYN/CM_TEST_PRED>
-

>  <THERMAL_CONDUCTIVITY_MW/(M*K)_TEST_PRED>
-

>  <TETRAHYMENA_PYRIFORMIS_IGC50_MOL/L_TEST_PRED>
-

>  <VISCOSITY_CP_CP_TEST_PRED>
-

>  <VAPOR_PRESSURE_MMHG_TEST_PRED>
6.10E-10

>  <WATER_SOLUBILITY_MOL/L_TEST_PRED>
4.41E-08

>  <ATMOSPHERIC_HYDROXYLATION_RATE_(AOH)_CM3/MOLECULE*SEC_OPERA_PRED>
3.39E-11

>  <BIOCONCENTRATION_FACTOR_OPERA_PRED>
414.328

>  <BIODEGRADATION_HALF_LIFE_DAYS_DAYS_OPERA_PRED>
3.35162

>  <BOILING_POINT_DEGC_OPERA_PRED>
424.372

>  <HENRYS_LAW_ATM-M3/MOLE_OPERA_PRED>
4.45E-09

>  <OPERA_KM_DAYS_OPERA_PRED>
2.41845

>  <OCTANOL_AIR_PARTITION_COEFF_LOGKOA_OPERA_PRED>
11.705

>  <SOIL_ADSORPTION_COEFFICIENT_KOC_L/KG_OPERA_PRED>
99888.1

>  <OCTANOL_WATER_PARTITION_LOGP_OPERA_PRED>
5.95213

>  <MELTING_POINT_DEGC_OPERA_PRED>
60.1236

>  <VAPOR_PRESSURE_MMHG_OPERA_PRED>
1.52E-10

>  <WATER_SOLUBILITY_MOL/L_OPERA_PRED>
6.74E-09

>  <Shape Index>
0.55172

>  <Molecular Flexibility>
0.43305

>  <Molecular Complexity>
0.80998

>  <Electronegative Atoms>
7

>  <Stereo Centers>
3

>  <Rotatable Bonds>
7

>  <Rings Closures>
3

>  <Aromatic Rings>
2

>  <Aromatic Atoms>
12

>  <Amides>
0

>  <Amines>
0

>  <Aromatic Nitrogens>
0

>  <Shape Index 2>
0.55172

>  <Molecular Flexibility 2>
0.43305

>  <Molecular Complexity 2>
0.80998

>  <Non-C/H Atoms>
7

>  <Electronegative Atoms 2>
7

>  <Stereo Centers 2>
3

>  <Rotatable Bonds 2>
7

>  <Rings Closures 2>
3

>  <Aromatic Rings 2>
2

>  <Aromatic Atoms 2>
12

>  <sp3-Atoms>
8

>  <Amides 2>
0

>  <Amines 2>
0

>  <Aromatic Nitrogens 2>
0

>  <Basic Nitrogens>
0

$$$$
cis-Cyfluthrin_isomer2
Actelion Java MolfileCreator 2.0

  0  0  0  0  0  0              0 V3000
M  V30 BEGIN CTAB
M  V30 COUNTS 29 31 0 0 0
M  V30 BEGIN ATOM
M  V30 1 Cl 0.0 0.0 0.0 0
M  V30 2 C -1.3153 -0.7465 0.0 0
M  V30 3 Cl -1.3272 -2.2397 0.0 0
M  V30 4 C -2.6307 0.0118 0.0 0
M  V30 5 C -3.9461 -0.7347 0.0 0 CFG=2
M  V30 6 C -5.463 -0.7228 0.0 0
M  V30 7 C -4.7046 -2.0264 0.0 0 CFG=2
M  V30 8 C -6.2214 0.5925 0.0 0
M  V30 9 C -6.9799 -0.711 0.0 0
M  V30 10 C -4.7164 -3.5195 0.0 0
M  V30 11 O -3.4247 -4.2543 0.0 0
M  V30 12 O -6.0318 -4.2543 0.0 0
M  V30 13 C -6.0437 -5.7474 0.0 0 CFG=2
M  V30 14 C -7.3591 -6.494 0.0 0
M  V30 15 C -4.752 -6.494 0.0 0
M  V30 16 N -8.6745 -7.2406 0.0 0
M  V30 17 C -4.7638 -7.9871 0.0 0
M  V30 18 C -3.4603 -5.7356 0.0 0
M  V30 19 C -3.4721 -8.7337 0.0 0
M  V30 20 C -2.1686 -6.4821 0.0 0
M  V30 21 O -3.484 -10.2269 0.0 0
M  V30 22 C -2.1804 -7.9753 0.0 0
M  V30 23 C -2.1923 -10.9734 0.0 0
M  V30 24 F -0.8887 -8.7219 0.0 0
M  V30 25 C -2.2041 -12.4666 0.0 0
M  V30 26 C -0.9006 -10.215 0.0 0
M  V30 27 C -0.9124 -13.2132 0.0 0
M  V30 28 C 0.391 -10.9616 0.0 0
M  V30 29 C 0.3792 -12.4547 0.0 0
M  V30 END ATOM
M  V30 BEGIN BOND
M  V30 1 1 1 2
M  V30 2 1 2 3
M  V30 3 2 2 4
M  V30 4 1 5 4 CFG=1
M  V30 5 1 5 6
M  V30 6 1 5 7
M  V30 7 1 6 8
M  V30 8 1 6 9
M  V30 9 1 7 10 CFG=1
M  V30 10 2 10 11
M  V30 11 1 10 12
M  V30 12 1 13 12 CFG=1
M  V30 13 1 13 14
M  V30 14 1 13 15
M  V30 15 3 14 16
M  V30 16 2 15 17
M  V30 17 1 15 18
M  V30 18 1 17 19
M  V30 19 2 18 20
M  V30 20 1 19 21
M  V30 21 2 19 22
M  V30 22 1 21 23
M  V30 23 1 22 24
M  V30 24 2 23 25
M  V30 25 1 23 26
M  V30 26 1 25 27
M  V30 27 2 26 28
M  V30 28 2 27 29
M  V30 29 1 6 7
M  V30 30 1 20 22
M  V30 31 1 28 29
M  V30 END BOND
M  V30 BEGIN COLLECTION
M  V30 MDLV30/STEABS ATOMS=(3 5 7 13)
M  V30 END COLLECTION
M  V30 END CTAB
M  END
>  <Molecule Name>
cis-Cyfluthrin_isomer2

>  <Order (spectra)>
99

>  <NAME>
cis-Cyfluthrin_isomer2

>  <Molecular Formula>
C22H18NO3Cl2F

>  <Monoisotopic Mass>
433.064776

>  <SMILES>
CC1([C@H]([C@H]1C(=O)O[C@H](C#N)C2=CC(=C(C=C2)F)OC3=CC=CC=C3)C=C(Cl)Cl)C

>  <InChI>
InChI=1S/C22H18Cl2FNO3/c1-22(2)15(11-19(23)24)20(22)21(27)29-18(12-26)13-8-9-16(25)17(10-13)28-14-6-4-3-5-7-14/h3-11,15,18,20H,1-2H3/t15-,18+,20+/m0/s1

>  <InChIKey>
QQODLKZGRKWIFG-CVAIRZPRSA-N

>  <Kingdom>
Organic compounds

>  <Superclass>
Lipids and lipid-like molecules

>  <Class>
Fatty Acyls

>  <Subclass>
Fatty acid esters

>  <Parent Level 1>
Pyrethroids

>  <Parent Level 2>


>  <Parent Level 3>


>  <cLogP>
5.442

>  <cLogS>
-7.002

>  <Druglikeness>
-5.8436

>  <NP-class probability>
0.5

>  <SmilesFragFp 3>


>  <MS_READY_SMILES>
-

>  <MS_READY_InChI>


>  <QSAR_READY_SMILES>
-

>  <QSAR_READY_InChI>


>  <DTXSID>
-

>  <DTXCID>
-

>  <CASRN>
-

>  <EXPOCAST_MEDIAN_EXPOSURE_PREDICTION_MG/KG-BW/DAY>
-

>  <BIOCONCENTRATION_FACTOR_TEST_PRED>
-

>  <BOILING_POINT_DEGC_TEST_PRED>
-

>  <48HR_DAPHNIA_LC50_MOL/L_TEST_PRED>
-

>  <DENSITY_G/CM^3_TEST_PRED>
-

>  <DEVTOX_TEST_PRED>
-

>  <96HR_FATHEAD_MINNOW_MOL/L_TEST_PRED>
-

>  <FLASH_POINT_DEGC_TEST_PRED>
-

>  <MELTING_POINT_DEGC_TEST_PRED>
-

>  <AMES_MUTAGENICITY_TEST_PRED>
-

>  <ORAL_RAT_LD50_MOL/KG_TEST_PRED>
-

>  <SURFACE_TENSION_DYN/CM_TEST_PRED>
-

>  <THERMAL_CONDUCTIVITY_MW/(M*K)_TEST_PRED>
-

>  <TETRAHYMENA_PYRIFORMIS_IGC50_MOL/L_TEST_PRED>
-

>  <VISCOSITY_CP_CP_TEST_PRED>
-

>  <VAPOR_PRESSURE_MMHG_TEST_PRED>
-

>  <WATER_SOLUBILITY_MOL/L_TEST_PRED>
-

>  <ATMOSPHERIC_HYDROXYLATION_RATE_(AOH)_CM3/MOLECULE*SEC_OPERA_PRED>
-

>  <BIOCONCENTRATION_FACTOR_OPERA_PRED>
-

>  <BIODEGRADATION_HALF_LIFE_DAYS_DAYS_OPERA_PRED>
-

>  <BOILING_POINT_DEGC_OPERA_PRED>
-

>  <HENRYS_LAW_ATM-M3/MOLE_OPERA_PRED>
-

>  <OPERA_KM_DAYS_OPERA_PRED>
-

>  <OCTANOL_AIR_PARTITION_COEFF_LOGKOA_OPERA_PRED>
-

>  <SOIL_ADSORPTION_COEFFICIENT_KOC_L/KG_OPERA_PRED>
-

>  <OCTANOL_WATER_PARTITION_LOGP_OPERA_PRED>
-

>  <MELTING_POINT_DEGC_OPERA_PRED>
-

>  <VAPOR_PRESSURE_MMHG_OPERA_PRED>
-

>  <WATER_SOLUBILITY_MOL/L_OPERA_PRED>
-

>  <Shape Index>
0.55172

>  <Molecular Flexibility>
0.42636

>  <Molecular Complexity>
0.80998

>  <Electronegative Atoms>
7

>  <Stereo Centers>
3

>  <Rotatable Bonds>
7

>  <Rings Closures>
3

>  <Aromatic Rings>
2

>  <Aromatic Atoms>
12

>  <Amides>
0

>  <Amines>
0

>  <Aromatic Nitrogens>
0

>  <Shape Index 2>
0.55172

>  <Molecular Flexibility 2>
0.42636

>  <Molecular Complexity 2>
0.80998

>  <Non-C/H Atoms>
7

>  <Electronegative Atoms 2>
7

>  <Stereo Centers 2>
3

>  <Rotatable Bonds 2>
7

>  <Rings Closures 2>
3

>  <Aromatic Rings 2>
2

>  <Aromatic Atoms 2>
12

>  <sp3-Atoms>
8

>  <Amides 2>
0

>  <Amines 2>
0

>  <Aromatic Nitrogens 2>
0

>  <Basic Nitrogens>
0

$$$$
trans-Cyfluthrin_Isomer2
Actelion Java MolfileCreator 2.0

  0  0  0  0  0  0              0 V3000
M  V30 BEGIN CTAB
M  V30 COUNTS 29 31 0 0 0
M  V30 BEGIN ATOM
M  V30 1 Cl 0.0 0.0 0.0 0
M  V30 2 C -1.3153 -0.7465 0.0 0
M  V30 3 Cl -1.3272 -2.2397 0.0 0
M  V30 4 C -2.6307 0.0118 0.0 0
M  V30 5 C -3.9461 -0.7347 0.0 0
M  V30 6 C -5.463 -0.7228 0.0 0
M  V30 7 C -4.7046 -2.0264 0.0 0
M  V30 8 C -6.2214 0.5925 0.0 0
M  V30 9 C -6.9799 -0.711 0.0 0
M  V30 10 C -4.7164 -3.5195 0.0 0
M  V30 11 O -3.4247 -4.2543 0.0 0
M  V30 12 O -6.0318 -4.2543 0.0 0
M  V30 13 C -6.0437 -5.7474 0.0 0
M  V30 14 C -7.3591 -6.494 0.0 0
M  V30 15 C -4.752 -6.494 0.0 0
M  V30 16 N -8.6745 -7.2406 0.0 0
M  V30 17 C -4.7638 -7.9871 0.0 0
M  V30 18 C -3.4603 -5.7356 0.0 0
M  V30 19 C -3.4721 -8.7337 0.0 0
M  V30 20 C -2.1686 -6.4821 0.0 0
M  V30 21 O -3.484 -10.2269 0.0 0
M  V30 22 C -2.1804 -7.9753 0.0 0
M  V30 23 C -2.1923 -10.9734 0.0 0
M  V30 24 F -0.8887 -8.7219 0.0 0
M  V30 25 C -2.2041 -12.4666 0.0 0
M  V30 26 C -0.9006 -10.215 0.0 0
M  V30 27 C -0.9124 -13.2132 0.0 0
M  V30 28 C 0.391 -10.9616 0.0 0
M  V30 29 C 0.3792 -12.4547 0.0 0
M  V30 END ATOM
M  V30 BEGIN BOND
M  V30 1 1 1 2
M  V30 2 1 2 3
M  V30 3 2 2 4
M  V30 4 1 4 5
M  V30 5 1 5 6
M  V30 6 1 5 7
M  V30 7 1 6 8
M  V30 8 1 6 9
M  V30 9 1 7 10
M  V30 10 2 10 11
M  V30 11 1 10 12
M  V30 12 1 12 13
M  V30 13 1 13 14
M  V30 14 1 13 15
M  V30 15 3 14 16
M  V30 16 2 15 17
M  V30 17 1 15 18
M  V30 18 1 17 19
M  V30 19 2 18 20
M  V30 20 1 19 21
M  V30 21 2 19 22
M  V30 22 1 21 23
M  V30 23 1 22 24
M  V30 24 2 23 25
M  V30 25 1 23 26
M  V30 26 1 25 27
M  V30 27 2 26 28
M  V30 28 2 27 29
M  V30 29 1 6 7
M  V30 30 1 20 22
M  V30 31 1 28 29
M  V30 END BOND
M  V30 END CTAB
M  END
>  <Molecule Name>
trans-Cyfluthrin_Isomer2

>  <Order (spectra)>
100

>  <NAME>
trans-Cyfluthrin_Isomer2

>  <Molecular Formula>
C22H18NO3Cl2F

>  <Monoisotopic Mass>
433.064776

>  <SMILES>
CC1(C)C(C=C(Cl)Cl)C1C(=O)OC(C#N)C1=CC=C(F)C(OC2=CC=CC=C2)=C1

>  <InChI>
InChI=1S/C22H18Cl2FNO3/c1-22(2)15(11-19(23)24)20(22)21(27)29-18(12-26)13-8-9-16(25)17(10-13)28-14-6-4-3-5-7-14/h3-11,15,18,20H,1-2H3

>  <InChIKey>
QQODLKZGRKWIFG-UHFFFAOYSA-N

>  <Kingdom>
Organic compounds

>  <Superclass>
Lipids and lipid-like molecules

>  <Class>
Fatty Acyls

>  <Subclass>
Fatty acid esters

>  <Parent Level 1>
Pyrethroids

>  <Parent Level 2>


>  <Parent Level 3>


>  <cLogP>
5.442

>  <cLogS>
-7.002

>  <Druglikeness>
-5.8436

>  <NP-class probability>
0.5

>  <SmilesFragFp 3>


>  <MS_READY_SMILES>
CC1(C)C(C=C(Cl)Cl)C1C(=O)OC(C#N)C1=CC=C(F)C(OC2=CC=CC=C2)=C1

>  <MS_READY_InChI>
InChI=1S/C22H18Cl2FNO3/c1-22(2)15(11-19(23)24)20(22)21(27)29-18(12-26)13-8-9-16(25)17(10-13)28-14-6-4-3-5-7-14/h3-11,15,18,20H,1-2H3

>  <QSAR_READY_SMILES>
CC1(C)C(C=C(Cl)Cl)C1C(=O)OC(C#N)C1=CC=C(F)C(OC2=CC=CC=C2)=C1

>  <QSAR_READY_InChI>
InChI=1S/C22H18Cl2FNO3/c1-22(2)15(11-19(23)24)20(22)21(27)29-18(12-26)13-8-9-16(25)17(10-13)28-14-6-4-3-5-7-14/h3-11,15,18,20H,1-2H3

>  <DTXSID>
DTXSID5035957

>  <DTXCID>
DTXCID6028078

>  <CASRN>
68359-37-5

>  <EXPOCAST_MEDIAN_EXPOSURE_PREDICTION_MG/KG-BW/DAY>
2.33E-07

>  <BIOCONCENTRATION_FACTOR_TEST_PRED>
928.966

>  <BOILING_POINT_DEGC_TEST_PRED>
442.743

>  <48HR_DAPHNIA_LC50_MOL/L_TEST_PRED>
1.18E-09

>  <DENSITY_G/CM^3_TEST_PRED>
1.344

>  <DEVTOX_TEST_PRED>
0.873

>  <96HR_FATHEAD_MINNOW_MOL/L_TEST_PRED>
3.16E-09

>  <FLASH_POINT_DEGC_TEST_PRED>
272.713

>  <MELTING_POINT_DEGC_TEST_PRED>
75.194

>  <AMES_MUTAGENICITY_TEST_PRED>
0.002

>  <ORAL_RAT_LD50_MOL/KG_TEST_PRED>
0.00153109

>  <SURFACE_TENSION_DYN/CM_TEST_PRED>
-

>  <THERMAL_CONDUCTIVITY_MW/(M*K)_TEST_PRED>
-

>  <TETRAHYMENA_PYRIFORMIS_IGC50_MOL/L_TEST_PRED>
-

>  <VISCOSITY_CP_CP_TEST_PRED>
-

>  <VAPOR_PRESSURE_MMHG_TEST_PRED>
6.10E-10

>  <WATER_SOLUBILITY_MOL/L_TEST_PRED>
5.37E-08

>  <ATMOSPHERIC_HYDROXYLATION_RATE_(AOH)_CM3/MOLECULE*SEC_OPERA_PRED>
3.39E-11

>  <BIOCONCENTRATION_FACTOR_OPERA_PRED>
414.328

>  <BIODEGRADATION_HALF_LIFE_DAYS_DAYS_OPERA_PRED>
3.35162

>  <BOILING_POINT_DEGC_OPERA_PRED>
424.372

>  <HENRYS_LAW_ATM-M3/MOLE_OPERA_PRED>
4.45E-09

>  <OPERA_KM_DAYS_OPERA_PRED>
2.41845

>  <OCTANOL_AIR_PARTITION_COEFF_LOGKOA_OPERA_PRED>
11.705

>  <SOIL_ADSORPTION_COEFFICIENT_KOC_L/KG_OPERA_PRED>
99888.1

>  <OCTANOL_WATER_PARTITION_LOGP_OPERA_PRED>
5.95213

>  <MELTING_POINT_DEGC_OPERA_PRED>
60.1236

>  <VAPOR_PRESSURE_MMHG_OPERA_PRED>
1.52E-10

>  <WATER_SOLUBILITY_MOL/L_OPERA_PRED>
6.74E-09

>  <Shape Index>
0.55172

>  <Molecular Flexibility>
0.50257

>  <Molecular Complexity>
0.8075

>  <Electronegative Atoms>
7

>  <Stereo Centers>
3

>  <Rotatable Bonds>
7

>  <Rings Closures>
3

>  <Aromatic Rings>
2

>  <Aromatic Atoms>
12

>  <Amides>
0

>  <Amines>
0

>  <Aromatic Nitrogens>
0

>  <Shape Index 2>
0.55172

>  <Molecular Flexibility 2>
0.50257

>  <Molecular Complexity 2>
0.8075

>  <Non-C/H Atoms>
7

>  <Electronegative Atoms 2>
7

>  <Stereo Centers 2>
3

>  <Rotatable Bonds 2>
7

>  <Rings Closures 2>
3

>  <Aromatic Rings 2>
2

>  <Aromatic Atoms 2>
12

>  <sp3-Atoms>
8

>  <Amides 2>
0

>  <Amines 2>
0

>  <Aromatic Nitrogens 2>
0

>  <Basic Nitrogens>
0

$$$$
Malathion
Actelion Java MolfileCreator 2.0

  0  0  0  0  0  0              0 V3000
M  V30 BEGIN CTAB
M  V30 COUNTS 19 18 0 0 0
M  V30 BEGIN ATOM
M  V30 1 S 0.0 0.0 0.0 0
M  V30 2 P -0.0117 1.505 0.0 0
M  V30 3 S -1.3169 0.7642 0.0 0
M  V30 4 O 1.2698 0.7642 0.0 0
M  V30 5 O -0.0235 3.01 0.0 0
M  V30 6 C -2.622 1.5167 0.0 0 CFG=2
M  V30 7 C 2.5515 1.5167 0.0 0
M  V30 8 C 1.2581 3.7625 0.0 0
M  V30 9 C -2.6338 3.0218 0.0 0
M  V30 10 C -3.9272 0.776 0.0 0
M  V30 11 O -1.3521 3.7743 0.0 0
M  V30 12 O -3.9389 3.7743 0.0 0
M  V30 13 C -5.2323 1.5285 0.0 0
M  V30 14 C -3.9507 5.2793 0.0 0
M  V30 15 O -5.2441 3.0335 0.0 0
M  V30 16 O -6.5375 0.7877 0.0 0
M  V30 17 C -5.2558 6.0319 0.0 0
M  V30 18 C -7.8426 1.5403 0.0 0
M  V30 19 C -9.1477 0.7995 0.0 0
M  V30 END ATOM
M  V30 BEGIN BOND
M  V30 1 2 1 2
M  V30 2 1 2 3
M  V30 3 1 2 4
M  V30 4 1 2 5
M  V30 5 1 6 3 CFG=1
M  V30 6 1 4 7
M  V30 7 1 5 8
M  V30 8 1 6 9
M  V30 9 1 6 10
M  V30 10 2 9 11
M  V30 11 1 9 12
M  V30 12 1 10 13
M  V30 13 1 12 14
M  V30 14 2 13 15
M  V30 15 1 13 16
M  V30 16 1 14 17
M  V30 17 1 16 18
M  V30 18 1 18 19
M  V30 END BOND
M  V30 BEGIN COLLECTION
M  V30 MDLV30/STERAC1 ATOMS=(1 6)
M  V30 END COLLECTION
M  V30 END CTAB
M  END
>  <Molecule Name>
Malathion

>  <Order (spectra)>
208

>  <NAME>
Malathion

>  <Molecular Formula>
C10H19O6PS2

>  <Monoisotopic Mass>
330.036067

>  <SMILES>
CCOC(=O)CC(SP(=S)(OC)OC)C(=O)OCC

>  <InChI>
InChI=1S/C10H19O6PS2/c1-5-15-9(11)7-8(10(12)16-6-2)19-17(18,13-3)14-4/h8H,5-7H2,1-4H3/t8-/m0/s1

>  <InChIKey>
JXSJBGJIGXNWCI-UHFFFAOYSA-N

>  <Kingdom>
Organic compounds

>  <Superclass>
Lipids and lipid-like molecules

>  <Class>
Fatty Acyls

>  <Subclass>
Fatty acid esters

>  <Parent Level 1>
Fatty acid esters

>  <Parent Level 2>


>  <Parent Level 3>


>  <cLogP>
2.0313

>  <cLogS>
-2.531

>  <Druglikeness>
-11.494

>  <NP-class probability>
0.45

>  <SmilesFragFp 3>


>  <MS_READY_SMILES>
CCOC(=O)CC(SP(=S)(OC)OC)C(=O)OCC

>  <MS_READY_InChI>
InChI=1S/C10H19O6PS2/c1-5-15-9(11)7-8(10(12)16-6-2)19-17(18,13-3)14-4/h8H,5-7H2,1-4H3/t8-/m0/s1

>  <QSAR_READY_SMILES>
CCOC(=O)CC(SP(=S)(OC)OC)C(=O)OCC

>  <QSAR_READY_InChI>
InChI=1S/C10H19O6PS2/c1-5-15-9(11)7-8(10(12)16-6-2)19-17(18,13-3)14-4/h8H,5-7H2,1-4H3/t8-/m0/s1

>  <DTXSID>
DTXSID4020791

>  <DTXCID>
DTXCID80791

>  <CASRN>
121-75-5

>  <EXPOCAST_MEDIAN_EXPOSURE_PREDICTION_MG/KG-BW/DAY>
2.39E-07

>  <BIOCONCENTRATION_FACTOR_TEST_PRED>
9.86279

>  <BOILING_POINT_DEGC_TEST_PRED>
284.068

>  <48HR_DAPHNIA_LC50_MOL/L_TEST_PRED>
2.58E-08

>  <DENSITY_G/CM^3_TEST_PRED>
1.263

>  <DEVTOX_TEST_PRED>
0.378

>  <96HR_FATHEAD_MINNOW_MOL/L_TEST_PRED>
1.22E-05

>  <FLASH_POINT_DEGC_TEST_PRED>
174.441

>  <MELTING_POINT_DEGC_TEST_PRED>
-1.541

>  <AMES_MUTAGENICITY_TEST_PRED>
0.383

>  <ORAL_RAT_LD50_MOL/KG_TEST_PRED>
0.00104713

>  <SURFACE_TENSION_DYN/CM_TEST_PRED>
-

>  <THERMAL_CONDUCTIVITY_MW/(M*K)_TEST_PRED>
-

>  <TETRAHYMENA_PYRIFORMIS_IGC50_MOL/L_TEST_PRED>
-

>  <VISCOSITY_CP_CP_TEST_PRED>
-

>  <VAPOR_PRESSURE_MMHG_TEST_PRED>
7.23E-06

>  <WATER_SOLUBILITY_MOL/L_TEST_PRED>
0.000760326

>  <ATMOSPHERIC_HYDROXYLATION_RATE_(AOH)_CM3/MOLECULE*SEC_OPERA_PRED>
7.77E-12

>  <BIOCONCENTRATION_FACTOR_OPERA_PRED>
33.0695

>  <BIODEGRADATION_HALF_LIFE_DAYS_DAYS_OPERA_PRED>
125.964

>  <BOILING_POINT_DEGC_OPERA_PRED>
359.966

>  <HENRYS_LAW_ATM-M3/MOLE_OPERA_PRED>
4.88E-09

>  <OPERA_KM_DAYS_OPERA_PRED>
1.9412

>  <OCTANOL_AIR_PARTITION_COEFF_LOGKOA_OPERA_PRED>
9.61127

>  <SOIL_ADSORPTION_COEFFICIENT_KOC_L/KG_OPERA_PRED>
229.268

>  <OCTANOL_WATER_PARTITION_LOGP_OPERA_PRED>
2.35864

>  <MELTING_POINT_DEGC_OPERA_PRED>
2.83289

>  <VAPOR_PRESSURE_MMHG_OPERA_PRED>
3.39E-06

>  <WATER_SOLUBILITY_MOL/L_OPERA_PRED>
0.000439412

>  <Shape Index>
0.52632

>  <Molecular Flexibility>
0.69947

>  <Molecular Complexity>
0.65353

>  <Electronegative Atoms>
9

>  <Stereo Centers>
1

>  <Rotatable Bonds>
11

>  <Rings Closures>
0

>  <Aromatic Rings>
0

>  <Aromatic Atoms>
0

>  <Amides>
0

>  <Amines>
0

>  <Aromatic Nitrogens>
0

>  <Shape Index 2>
0.52632

>  <Molecular Flexibility 2>
0.69947

>  <Molecular Complexity 2>
0.65353

>  <Non-C/H Atoms>
9

>  <Electronegative Atoms 2>
9

>  <Stereo Centers 2>
1

>  <Rotatable Bonds 2>
11

>  <Rings Closures 2>
0

>  <Aromatic Rings 2>
0

>  <Aromatic Atoms 2>
0

>  <sp3-Atoms>
15

>  <Amides 2>
0

>  <Amines 2>
0

>  <Aromatic Nitrogens 2>
0

>  <Basic Nitrogens>
0

$$$$
Mevinphos
Actelion Java MolfileCreator 2.0

  0  0  0  0  0  0              0 V3000
M  V30 BEGIN CTAB
M  V30 COUNTS 14 13 0 0 0
M  V30 BEGIN ATOM
M  V30 1 P 0.0 0.0 0.0 0
M  V30 2 O 1.2873 -0.744 0.0 0
M  V30 3 O -1.3109 0.7558 0.0 0
M  V30 4 O 1.2873 0.7558 0.0 0
M  V30 5 O -0.0118 -1.488 0.0 0
M  V30 6 C -2.6218 0.0118 0.0 0
M  V30 7 C 2.5746 0.0118 0.0 0
M  V30 8 C -1.3227 -2.2321 0.0 0
M  V30 9 C -3.9327 0.7676 0.0 0
M  V30 10 C -2.6336 -1.4762 0.0 0
M  V30 11 C -5.2437 0.0236 0.0 0
M  V30 12 O -5.2555 -1.4644 0.0 0
M  V30 13 O -6.5546 0.7794 0.0 0
M  V30 14 C -7.8655 0.0354 0.0 0
M  V30 END ATOM
M  V30 BEGIN BOND
M  V30 1 2 1 2
M  V30 2 1 1 3
M  V30 3 1 1 4
M  V30 4 1 1 5
M  V30 5 1 3 6
M  V30 6 1 4 7
M  V30 7 1 5 8
M  V30 8 2 6 9
M  V30 9 1 6 10
M  V30 10 1 9 11
M  V30 11 2 11 12
M  V30 12 1 11 13
M  V30 13 1 13 14
M  V30 END BOND
M  V30 END CTAB
M  END
>  <Molecule Name>
Mevinphos

>  <Order (spectra)>
241

>  <NAME>
Mevinphos

>  <Molecular Formula>
C7H13O6P

>  <Monoisotopic Mass>
224.044977

>  <SMILES>
COC(=O)\C=C(/C)OP(=O)(OC)OC

>  <InChI>
InChI=1S/C7H13O6P/c1-6(5-7(8)10-2)13-14(9,11-3)12-4/h5H,1-4H3

>  <InChIKey>
GEPDYQSQVLXLEU-AATRIKPKSA-N

>  <Kingdom>
Organic compounds

>  <Superclass>
Lipids and lipid-like molecules

>  <Class>
Fatty Acyls

>  <Subclass>
Fatty acid esters

>  <Parent Level 1>
Fatty acid esters

>  <Parent Level 2>


>  <Parent Level 3>


>  <cLogP>
0.2543

>  <cLogS>
-0.36

>  <Druglikeness>
-30.09

>  <NP-class probability>
0.48

>  <SmilesFragFp 3>


>  <MS_READY_SMILES>
COC(=O)C=C(C)OP(=O)(OC)OC

>  <MS_READY_InChI>
InChI=1S/C7H13O6P/c1-6(5-7(8)10-2)13-14(9,11-3)12-4/h5H,1-4H3

>  <QSAR_READY_SMILES>
COC(=O)C=C(C)OP(=O)(OC)OC

>  <QSAR_READY_InChI>
InChI=1S/C7H13O6P/c1-6(5-7(8)10-2)13-14(9,11-3)12-4/h5H,1-4H3

>  <DTXSID>
DTXSID0058358

>  <DTXCID>
DTXCID0012683

>  <CASRN>
298-01-1

>  <EXPOCAST_MEDIAN_EXPOSURE_PREDICTION_MG/KG-BW/DAY>
6.30E-07

>  <BIOCONCENTRATION_FACTOR_TEST_PRED>
-

>  <BOILING_POINT_DEGC_TEST_PRED>
261.382

>  <48HR_DAPHNIA_LC50_MOL/L_TEST_PRED>
1.81E-07

>  <DENSITY_G/CM^3_TEST_PRED>
1.206

>  <DEVTOX_TEST_PRED>
0.71

>  <96HR_FATHEAD_MINNOW_MOL/L_TEST_PRED>
0.00021727

>  <FLASH_POINT_DEGC_TEST_PRED>
128.754

>  <MELTING_POINT_DEGC_TEST_PRED>
-3.108

>  <AMES_MUTAGENICITY_TEST_PRED>
0.408

>  <ORAL_RAT_LD50_MOL/KG_TEST_PRED>
3.55E-05

>  <SURFACE_TENSION_DYN/CM_TEST_PRED>
33.463

>  <THERMAL_CONDUCTIVITY_MW/(M*K)_TEST_PRED>
-

>  <TETRAHYMENA_PYRIFORMIS_IGC50_MOL/L_TEST_PRED>
0.00211836

>  <VISCOSITY_CP_CP_TEST_PRED>
-

>  <VAPOR_PRESSURE_MMHG_TEST_PRED>
0.000968278

>  <WATER_SOLUBILITY_MOL/L_TEST_PRED>
0.179473

>  <ATMOSPHERIC_HYDROXYLATION_RATE_(AOH)_CM3/MOLECULE*SEC_OPERA_PRED>
3.77E-11

>  <BIOCONCENTRATION_FACTOR_OPERA_PRED>
0.957636

>  <BIODEGRADATION_HALF_LIFE_DAYS_DAYS_OPERA_PRED>
4.13852

>  <BOILING_POINT_DEGC_OPERA_PRED>
251.137

>  <HENRYS_LAW_ATM-M3/MOLE_OPERA_PRED>
1.29E-09

>  <OPERA_KM_DAYS_OPERA_PRED>
0.30501

>  <OCTANOL_AIR_PARTITION_COEFF_LOGKOA_OPERA_PRED>
6.68338

>  <SOIL_ADSORPTION_COEFFICIENT_KOC_L/KG_OPERA_PRED>
8.05956

>  <OCTANOL_WATER_PARTITION_LOGP_OPERA_PRED>
0.129756

>  <MELTING_POINT_DEGC_OPERA_PRED>
17.3728

>  <VAPOR_PRESSURE_MMHG_OPERA_PRED>
0.00012583

>  <WATER_SOLUBILITY_MOL/L_OPERA_PRED>
3.17499

>  <Shape Index>
0.64286

>  <Molecular Flexibility>
0.73262

>  <Molecular Complexity>
0.55537

>  <Electronegative Atoms>
7

>  <Stereo Centers>
0

>  <Rotatable Bonds>
6

>  <Rings Closures>
0

>  <Aromatic Rings>
0

>  <Aromatic Atoms>
0

>  <Amides>
0

>  <Amines>
0

>  <Aromatic Nitrogens>
0

>  <Shape Index 2>
0.64286

>  <Molecular Flexibility 2>
0.73262

>  <Molecular Complexity 2>
0.55537

>  <Non-C/H Atoms>
7

>  <Electronegative Atoms 2>
7

>  <Stereo Centers 2>
0

>  <Rotatable Bonds 2>
6

>  <Rings Closures 2>
0

>  <Aromatic Rings 2>
0

>  <Aromatic Atoms 2>
0

>  <sp3-Atoms>
9

>  <Amides 2>
0

>  <Amines 2>
0

>  <Aromatic Nitrogens 2>
0

>  <Basic Nitrogens>
0

$$$$
Spiromesifen
Actelion Java MolfileCreator 2.0

  0  0  0  0  0  0              0 V3000
M  V30 BEGIN CTAB
M  V30 COUNTS 27 29 0 0 0
M  V30 BEGIN ATOM
M  V30 1 O 0.0 0.0 0.0 0
M  V30 2 C -0.6242 1.378 0.0 0
M  V30 3 O 0.1177 2.6853 0.0 0
M  V30 4 C -2.0964 1.696 0.0 0
M  V30 5 C -0.8951 3.8042 0.0 0
M  V30 6 C -3.2153 0.7066 0.0 0
M  V30 7 C -2.2613 3.1918 0.0 0
M  V30 8 C 0.4593 4.4284 0.0 0
M  V30 9 C -1.908 4.9231 0.0 0
M  V30 10 C -4.6522 1.1777 0.0 0
M  V30 11 C -2.9209 -0.742 0.0 0
M  V30 12 O -3.5687 3.9456 0.0 0
M  V30 13 C 0.2944 5.9242 0.0 0
M  V30 14 C -1.166 6.2305 0.0 0
M  V30 15 C -5.7711 0.1884 0.0 0
M  V30 16 C -4.9702 2.65 0.0 0
M  V30 17 C -4.0398 -1.7313 0.0 0
M  V30 18 C -1.5075 -1.1895 0.0 0
M  V30 19 C -3.5804 5.4531 0.0 0
M  V30 20 C -5.4767 -1.2602 0.0 0
M  V30 21 O -4.8878 6.2069 0.0 0
M  V30 22 C -2.2966 6.2069 0.0 0
M  V30 23 C -6.5956 -2.2495 0.0 0
M  V30 24 C -2.3084 7.7145 0.0 0
M  V30 25 C -3.816 7.7263 0.0 0
M  V30 26 C -2.3202 9.2221 0.0 0
M  V30 27 C -0.8244 7.7263 0.0 0
M  V30 END ATOM
M  V30 BEGIN BOND
M  V30 1 2 1 2
M  V30 2 1 2 3
M  V30 3 1 2 4
M  V30 4 1 3 5
M  V30 5 1 4 6
M  V30 6 2 4 7
M  V30 7 1 5 8
M  V30 8 1 5 9
M  V30 9 2 6 10
M  V30 10 1 6 11
M  V30 11 1 7 12
M  V30 12 1 8 13
M  V30 13 1 9 14
M  V30 14 1 10 15
M  V30 15 1 10 16
M  V30 16 2 11 17
M  V30 17 1 11 18
M  V30 18 1 12 19
M  V30 19 2 15 20
M  V30 20 2 19 21
M  V30 21 1 19 22
M  V30 22 1 20 23
M  V30 23 1 22 24
M  V30 24 1 24 25
M  V30 25 1 24 26
M  V30 26 1 24 27
M  V30 27 1 5 7
M  V30 28 1 13 14
M  V30 29 1 17 20
M  V30 END BOND
M  V30 END CTAB
M  END
>  <Molecule Name>
Spiromesifen

>  <Order (spectra)>
361

>  <NAME>
Spiromesifen

>  <Molecular Formula>
C23H30O4

>  <Monoisotopic Mass>
370.21441

>  <SMILES>
CC1=CC(C)=C(C2=C(OC(=O)CC(C)(C)C)C3(CCCC3)OC2=O)C(C)=C1

>  <InChI>
InChI=1S/C23H30O4/c1-14-11-15(2)18(16(3)12-14)19-20(26-17(24)13-22(4,5)6)23(27-21(19)25)9-7-8-10-23/h11-12H,7-10,13H2,1-6H3

>  <InChIKey>
GOLXNESZZPUPJE-UHFFFAOYSA-N

>  <Kingdom>
Organic compounds

>  <Superclass>
Lipids and lipid-like molecules

>  <Class>
Fatty Acyls

>  <Subclass>
Fatty acid esters

>  <Parent Level 1>
Fatty acid esters

>  <Parent Level 2>


>  <Parent Level 3>


>  <cLogP>
4.6825

>  <cLogS>
-5.065

>  <Druglikeness>
-5.6075

>  <NP-class probability>
0.97

>  <SmilesFragFp 3>


>  <MS_READY_SMILES>
CC1=CC(C)=C(C2=C(OC(=O)CC(C)(C)C)C3(CCCC3)OC2=O)C(C)=C1

>  <MS_READY_InChI>
InChI=1S/C23H30O4/c1-14-11-15(2)18(16(3)12-14)19-20(26-17(24)13-22(4,5)6)23(27-21(19)25)9-7-8-10-23/h11-12H,7-10,13H2,1-6H3

>  <QSAR_READY_SMILES>
CC1=CC(C)=C(C2=C(OC(=O)CC(C)(C)C)C3(CCCC3)OC2=O)C(C)=C1

>  <QSAR_READY_InChI>
InChI=1S/C23H30O4/c1-14-11-15(2)18(16(3)12-14)19-20(26-17(24)13-22(4,5)6)23(27-21(19)25)9-7-8-10-23/h11-12H,7-10,13H2,1-6H3

>  <DTXSID>
DTXSID1034929

>  <DTXCID>
DTXCID9014929

>  <CASRN>
283594-90-1

>  <EXPOCAST_MEDIAN_EXPOSURE_PREDICTION_MG/KG-BW/DAY>
1.03E-05

>  <BIOCONCENTRATION_FACTOR_TEST_PRED>
-

>  <BOILING_POINT_DEGC_TEST_PRED>
423.035

>  <48HR_DAPHNIA_LC50_MOL/L_TEST_PRED>
7.67E-07

>  <DENSITY_G/CM^3_TEST_PRED>
1.054

>  <DEVTOX_TEST_PRED>
0.677

>  <96HR_FATHEAD_MINNOW_MOL/L_TEST_PRED>
1.57E-06

>  <FLASH_POINT_DEGC_TEST_PRED>
214.192

>  <MELTING_POINT_DEGC_TEST_PRED>
120.916

>  <AMES_MUTAGENICITY_TEST_PRED>
0.338

>  <ORAL_RAT_LD50_MOL/KG_TEST_PRED>
0.00639735

>  <SURFACE_TENSION_DYN/CM_TEST_PRED>
-

>  <THERMAL_CONDUCTIVITY_MW/(M*K)_TEST_PRED>
-

>  <TETRAHYMENA_PYRIFORMIS_IGC50_MOL/L_TEST_PRED>
-

>  <VISCOSITY_CP_CP_TEST_PRED>
-

>  <VAPOR_PRESSURE_MMHG_TEST_PRED>
2.19E-08

>  <WATER_SOLUBILITY_MOL/L_TEST_PRED>
3.90E-06

>  <ATMOSPHERIC_HYDROXYLATION_RATE_(AOH)_CM3/MOLECULE*SEC_OPERA_PRED>
3.26E-11

>  <BIOCONCENTRATION_FACTOR_OPERA_PRED>
153.788

>  <BIODEGRADATION_HALF_LIFE_DAYS_DAYS_OPERA_PRED>
3.35752

>  <BOILING_POINT_DEGC_OPERA_PRED>
368.451

>  <HENRYS_LAW_ATM-M3/MOLE_OPERA_PRED>
1.45E-08

>  <OPERA_KM_DAYS_OPERA_PRED>
1.0732

>  <OCTANOL_AIR_PARTITION_COEFF_LOGKOA_OPERA_PRED>
11.7354

>  <SOIL_ADSORPTION_COEFFICIENT_KOC_L/KG_OPERA_PRED>
5511.98

>  <OCTANOL_WATER_PARTITION_LOGP_OPERA_PRED>
4.54555

>  <MELTING_POINT_DEGC_OPERA_PRED>
115.74

>  <VAPOR_PRESSURE_MMHG_OPERA_PRED>
3.84E-07

>  <WATER_SOLUBILITY_MOL/L_OPERA_PRED>
3.55E-07

>  <Shape Index>
0.44444

>  <Molecular Flexibility>
0.40928

>  <Molecular Complexity>
0.88374

>  <Electronegative Atoms>
4

>  <Stereo Centers>
0

>  <Rotatable Bonds>
5

>  <Rings Closures>
3

>  <Aromatic Rings>
1

>  <Aromatic Atoms>
6

>  <Amides>
0

>  <Amines>
0

>  <Aromatic Nitrogens>
0

>  <Shape Index 2>
0.44444

>  <Molecular Flexibility 2>
0.40928

>  <Molecular Complexity 2>
0.88374

>  <Non-C/H Atoms>
4

>  <Electronegative Atoms 2>
4

>  <Stereo Centers 2>
0

>  <Rotatable Bonds 2>
5

>  <Rings Closures 2>
3

>  <Aromatic Rings 2>
1

>  <Aromatic Atoms 2>
6

>  <sp3-Atoms>
15

>  <Amides 2>
0

>  <Amines 2>
0

>  <Aromatic Nitrogens 2>
0

>  <Basic Nitrogens>
0

$$$$
2,3-Benzofluorene
Actelion Java MolfileCreator 2.0

  0  0  0  0  0  0              0 V3000
M  V30 BEGIN CTAB
M  V30 COUNTS 17 20 0 0 0
M  V30 BEGIN ATOM
M  V30 1 C 0.0 0.0 0.0 0
M  V30 2 C -0.0118 -1.4929 0.0 0
M  V30 3 C 1.2914 0.7582 0.0 0
M  V30 4 C -1.3151 0.7582 0.0 0
M  V30 5 C 1.2796 -2.2393 0.0 0
M  V30 6 C -1.327 -2.2393 0.0 0
M  V30 7 C 2.5829 0.0236 0.0 0
M  V30 8 C -2.6303 0.0236 0.0 0
M  V30 9 C 2.5711 -1.4692 0.0 0
M  V30 10 C -2.6422 -1.4692 0.0 0
M  V30 11 C 4.0047 0.4976 0.0 0
M  V30 12 C 3.9929 -1.9194 0.0 0
M  V30 13 C 4.8815 -0.7109 0.0 0
M  V30 14 C 4.609 1.8839 0.0 0
M  V30 15 C 6.3626 -0.545 0.0 0
M  V30 16 C 6.09 2.0497 0.0 0
M  V30 17 C 6.9668 0.8412 0.0 0
M  V30 END ATOM
M  V30 BEGIN BOND
M  V30 1 1 1 2
M  V30 2 1 1 3
M  V30 3 2 1 4
M  V30 4 1 2 5
M  V30 5 2 2 6
M  V30 6 2 3 7
M  V30 7 1 4 8
M  V30 8 2 5 9
M  V30 9 1 6 10
M  V30 10 1 7 11
M  V30 11 1 9 12
M  V30 12 2 11 13
M  V30 13 1 11 14
M  V30 14 1 13 15
M  V30 15 2 14 16
M  V30 16 2 15 17
M  V30 17 1 7 9
M  V30 18 2 8 10
M  V30 19 1 12 13
M  V30 20 1 16 17
M  V30 END BOND
M  V30 END CTAB
M  END
>  <Molecule Name>
2,3-Benzofluorene

>  <Order (spectra)>
13

>  <NAME>
2,3-Benzofluorene

>  <Molecular Formula>
C17H12

>  <Monoisotopic Mass>
216.0939

>  <SMILES>
C1C2=CC=CC=C2C2=C1C=C1C=CC=CC1=C2

>  <InChI>
InChI=1S/C17H12/c1-2-6-13-11-17-15(9-12(13)5-1)10-14-7-3-4-8-16(14)17/h1-9,11H,10H2

>  <InChIKey>
HAPOJKSPCGLOOD-UHFFFAOYSA-N

>  <Kingdom>
Organic compounds

>  <Superclass>
Benzenoids

>  <Class>
Fluorenes

>  <Subclass>


>  <Parent Level 1>
Fluorenes

>  <Parent Level 2>


>  <Parent Level 3>


>  <cLogP>
4.8723

>  <cLogS>
-5.933

>  <Druglikeness>
-2.3702

>  <NP-class probability>
1

>  <SmilesFragFp 3>


>  <MS_READY_SMILES>
C1C2=CC=CC=C2C2=C1C=C1C=CC=CC1=C2

>  <MS_READY_InChI>
InChI=1S/C17H12/c1-2-6-13-11-17-15(9-12(13)5-1)10-14-7-3-4-8-16(14)17/h1-9,11H,10H2

>  <QSAR_READY_SMILES>
C1C2=CC=CC=C2C2=C1C=C1C=CC=CC1=C2

>  <QSAR_READY_InChI>
InChI=1S/C17H12/c1-2-6-13-11-17-15(9-12(13)5-1)10-14-7-3-4-8-16(14)17/h1-9,11H,10H2

>  <DTXSID>
DTXSID1022477

>  <DTXCID>
DTXCID902477

>  <CASRN>
243-17-4

>  <EXPOCAST_MEDIAN_EXPOSURE_PREDICTION_MG/KG-BW/DAY>
2.30E-06

>  <BIOCONCENTRATION_FACTOR_TEST_PRED>
688.652

>  <BOILING_POINT_DEGC_TEST_PRED>
383.639

>  <48HR_DAPHNIA_LC50_MOL/L_TEST_PRED>
1.45E-06

>  <DENSITY_G/CM^3_TEST_PRED>
1.163

>  <DEVTOX_TEST_PRED>
0.925

>  <96HR_FATHEAD_MINNOW_MOL/L_TEST_PRED>
7.03E-07

>  <FLASH_POINT_DEGC_TEST_PRED>
179.889

>  <MELTING_POINT_DEGC_TEST_PRED>
150.943

>  <AMES_MUTAGENICITY_TEST_PRED>
0.81

>  <ORAL_RAT_LD50_MOL/KG_TEST_PRED>
0.011722

>  <SURFACE_TENSION_DYN/CM_TEST_PRED>
-

>  <THERMAL_CONDUCTIVITY_MW/(M*K)_TEST_PRED>
127.962

>  <TETRAHYMENA_PYRIFORMIS_IGC50_MOL/L_TEST_PRED>
0.000013213

>  <VISCOSITY_CP_CP_TEST_PRED>
-

>  <VAPOR_PRESSURE_MMHG_TEST_PRED>
5.31E-07

>  <WATER_SOLUBILITY_MOL/L_TEST_PRED>
1.10E-07

>  <ATMOSPHERIC_HYDROXYLATION_RATE_(AOH)_CM3/MOLECULE*SEC_OPERA_PRED>
4.03E-11

>  <BIOCONCENTRATION_FACTOR_OPERA_PRED>
754.711

>  <BIODEGRADATION_HALF_LIFE_DAYS_DAYS_OPERA_PRED>
58.0793

>  <BOILING_POINT_DEGC_OPERA_PRED>
372.46

>  <HENRYS_LAW_ATM-M3/MOLE_OPERA_PRED>
1.09E-05

>  <OPERA_KM_DAYS_OPERA_PRED>
0.408669

>  <OCTANOL_AIR_PARTITION_COEFF_LOGKOA_OPERA_PRED>
8.51962

>  <SOIL_ADSORPTION_COEFFICIENT_KOC_L/KG_OPERA_PRED>
118811

>  <OCTANOL_WATER_PARTITION_LOGP_OPERA_PRED>
5.76704

>  <MELTING_POINT_DEGC_OPERA_PRED>
210.9

>  <VAPOR_PRESSURE_MMHG_OPERA_PRED>
5.54E-08

>  <WATER_SOLUBILITY_MOL/L_OPERA_PRED>
1.21E-08

>  <Shape Index>
0.52941

>  <Molecular Flexibility>
0

>  <Molecular Complexity>
0.79656

>  <Electronegative Atoms>
0

>  <Stereo Centers>
0

>  <Rotatable Bonds>
0

>  <Rings Closures>
4

>  <Aromatic Rings>
3

>  <Aromatic Atoms>
16

>  <Amides>
0

>  <Amines>
0

>  <Aromatic Nitrogens>
0

>  <Shape Index 2>
0.52941

>  <Molecular Flexibility 2>
0

>  <Molecular Complexity 2>
0.79656

>  <Non-C/H Atoms>
0

>  <Electronegative Atoms 2>
0

>  <Stereo Centers 2>
0

>  <Rotatable Bonds 2>
0

>  <Rings Closures 2>
4

>  <Aromatic Rings 2>
3

>  <Aromatic Atoms 2>
16

>  <sp3-Atoms>
1

>  <Amides 2>
0

>  <Amines 2>
0

>  <Aromatic Nitrogens 2>
0

>  <Basic Nitrogens>
0

$$$$
Hydroxyfluoren-9-one
Actelion Java MolfileCreator 2.0

  0  0  0  0  0  0              0 V3000
M  V30 BEGIN CTAB
M  V30 COUNTS 15 17 0 0 0
M  V30 BEGIN ATOM
M  V30 1 O 0.0 0.0 0.0 0
M  V30 2 C -1.3146 -0.7394 0.0 0
M  V30 3 C -2.6996 -0.1173 0.0 0
M  V30 4 C -1.4789 -2.2184 0.0 0
M  V30 5 C -3.1691 1.3146 0.0 0
M  V30 6 C -3.7091 -1.2207 0.0 0
M  V30 7 C -2.9579 -2.5236 0.0 0
M  V30 8 C -0.4929 -3.3217 0.0 0
M  V30 9 O -2.1832 2.4414 0.0 0
M  V30 10 C -4.6481 1.6432 0.0 0
M  V30 11 C -5.188 -0.892 0.0 0
M  V30 12 C -3.4274 -3.9321 0.0 0
M  V30 13 C -0.9624 -4.7303 0.0 0
M  V30 14 C -5.6575 0.5399 0.0 0
M  V30 15 C -2.4414 -5.0354 0.0 0
M  V30 END ATOM
M  V30 BEGIN BOND
M  V30 1 2 1 2
M  V30 2 1 2 3
M  V30 3 1 2 4
M  V30 4 2 3 5
M  V30 5 1 3 6
M  V30 6 2 4 7
M  V30 7 1 4 8
M  V30 8 1 5 9
M  V30 9 1 5 10
M  V30 10 2 6 11
M  V30 11 1 7 12
M  V30 12 2 8 13
M  V30 13 2 10 14
M  V30 14 2 12 15
M  V30 15 1 6 7
M  V30 16 1 11 14
M  V30 17 1 13 15
M  V30 END BOND
M  V30 END CTAB
M  END
>  <Molecule Name>
Hydroxyfluoren-9-one

>  <Order (spectra)>
188

>  <NAME>
Hydroxyfluoren-9-one

>  <Molecular Formula>
C13H8O2

>  <Monoisotopic Mass>
196.05243

>  <SMILES>
OC1=CC=CC2=C1C(=O)C1=CC=CC=C21

>  <InChI>
InChI=1S/C13H8O2/c14-11-7-3-6-9-8-4-1-2-5-10(8)13(15)12(9)11/h1-7,14H

>  <InChIKey>
QUUNMPSDKIURJD-UHFFFAOYSA-N

>  <Kingdom>
Organic compounds

>  <Superclass>
Benzenoids

>  <Class>
Fluorenes

>  <Subclass>


>  <Parent Level 1>
Fluorenes

>  <Parent Level 2>


>  <Parent Level 3>


>  <cLogP>
2.8302

>  <cLogS>
-4.42

>  <Druglikeness>
-1.0702

>  <NP-class probability>
0.78

>  <SmilesFragFp 3>


>  <MS_READY_SMILES>
OC1=CC=CC2=C1C(=O)C1=CC=CC=C21

>  <MS_READY_InChI>
InChI=1S/C13H8O2/c14-11-7-3-6-9-8-4-1-2-5-10(8)13(15)12(9)11/h1-7,14H

>  <QSAR_READY_SMILES>
OC1=CC=CC2=C1C(=O)C1=CC=CC=C21

>  <QSAR_READY_InChI>
InChI=1S/C13H8O2/c14-11-7-3-6-9-8-4-1-2-5-10(8)13(15)12(9)11/h1-7,14H

>  <DTXSID>
DTXSID70212855

>  <DTXCID>
DTXCID00135346

>  <CASRN>
6344-60-1

>  <EXPOCAST_MEDIAN_EXPOSURE_PREDICTION_MG/KG-BW/DAY>
8.82E-07

>  <BIOCONCENTRATION_FACTOR_TEST_PRED>
58.479

>  <BOILING_POINT_DEGC_TEST_PRED>
351.563

>  <48HR_DAPHNIA_LC50_MOL/L_TEST_PRED>
1.79E-05

>  <DENSITY_G/CM^3_TEST_PRED>
1.259

>  <DEVTOX_TEST_PRED>
0.84

>  <96HR_FATHEAD_MINNOW_MOL/L_TEST_PRED>
1.51E-05

>  <FLASH_POINT_DEGC_TEST_PRED>
178.049

>  <MELTING_POINT_DEGC_TEST_PRED>
179.565

>  <AMES_MUTAGENICITY_TEST_PRED>
0.668

>  <ORAL_RAT_LD50_MOL/KG_TEST_PRED>
0.00586138

>  <SURFACE_TENSION_DYN/CM_TEST_PRED>
-

>  <THERMAL_CONDUCTIVITY_MW/(M*K)_TEST_PRED>
-

>  <TETRAHYMENA_PYRIFORMIS_IGC50_MOL/L_TEST_PRED>
9.68E-05

>  <VISCOSITY_CP_CP_TEST_PRED>
-

>  <VAPOR_PRESSURE_MMHG_TEST_PRED>
3.94E-06

>  <WATER_SOLUBILITY_MOL/L_TEST_PRED>
0.000171791

>  <ATMOSPHERIC_HYDROXYLATION_RATE_(AOH)_CM3/MOLECULE*SEC_OPERA_PRED>
3.26E-12

>  <BIOCONCENTRATION_FACTOR_OPERA_PRED>
32.5296

>  <BIODEGRADATION_HALF_LIFE_DAYS_DAYS_OPERA_PRED>
15.2213

>  <BOILING_POINT_DEGC_OPERA_PRED>
313.303

>  <HENRYS_LAW_ATM-M3/MOLE_OPERA_PRED>
1.81E-09

>  <OPERA_KM_DAYS_OPERA_PRED>
0.170384

>  <OCTANOL_AIR_PARTITION_COEFF_LOGKOA_OPERA_PRED>
9.39365

>  <SOIL_ADSORPTION_COEFFICIENT_KOC_L/KG_OPERA_PRED>
5955.44

>  <OCTANOL_WATER_PARTITION_LOGP_OPERA_PRED>
3.61773

>  <MELTING_POINT_DEGC_OPERA_PRED>
73.3094

>  <VAPOR_PRESSURE_MMHG_OPERA_PRED>
1.30E-06

>  <WATER_SOLUBILITY_MOL/L_OPERA_PRED>
5.39E-05

>  <Shape Index>
0.46667

>  <Molecular Flexibility>
0

>  <Molecular Complexity>
0.79871

>  <Electronegative Atoms>
2

>  <Stereo Centers>
0

>  <Rotatable Bonds>
0

>  <Rings Closures>
3

>  <Aromatic Rings>
2

>  <Aromatic Atoms>
12

>  <Amides>
0

>  <Amines>
0

>  <Aromatic Nitrogens>
0

>  <Shape Index 2>
0.46667

>  <Molecular Flexibility 2>
0

>  <Molecular Complexity 2>
0.79871

>  <Non-C/H Atoms>
2

>  <Electronegative Atoms 2>
2

>  <Stereo Centers 2>
0

>  <Rotatable Bonds 2>
0

>  <Rings Closures 2>
3

>  <Aromatic Rings 2>
2

>  <Aromatic Atoms 2>
12

>  <sp3-Atoms>
1

>  <Amides 2>
0

>  <Amines 2>
0

>  <Aromatic Nitrogens 2>
0

>  <Basic Nitrogens>
0

$$$$
Celestolide
Actelion Java MolfileCreator 2.0

  0  0  0  0  0  0              0 V3000
M  V30 BEGIN CTAB
M  V30 COUNTS 18 19 0 0 0
M  V30 BEGIN ATOM
M  V30 1 O 0.0 0.0 0.0 0
M  V30 2 C -1.3056 0.7528 0.0 0
M  V30 3 C -1.3174 2.2584 0.0 0
M  V30 4 C -2.6113 0.0117 0.0 0
M  V30 5 C -2.6231 3.0113 0.0 0
M  V30 6 C -0.0352 3.0113 0.0 0
M  V30 7 C -2.6348 4.5169 0.0 0
M  V30 8 C -4.0582 2.5643 0.0 0
M  V30 9 C -0.047 4.5169 0.0 0
M  V30 10 C -1.3527 5.2697 0.0 0
M  V30 11 C -4.0699 4.9874 0.0 0
M  V30 12 C -4.9521 3.7876 0.0 0
M  V30 13 C 1.2351 5.2697 0.0 0
M  V30 14 C -3.7759 6.4578 0.0 0
M  V30 15 C -5.1874 5.999 0.0 0
M  V30 16 C 0.4822 6.5754 0.0 0
M  V30 17 C 2.5172 6.0226 0.0 0
M  V30 18 C 1.9761 3.9876 0.0 0
M  V30 END ATOM
M  V30 BEGIN BOND
M  V30 1 2 1 2
M  V30 2 1 2 3
M  V30 3 1 2 4
M  V30 4 2 3 5
M  V30 5 1 3 6
M  V30 6 1 5 7
M  V30 7 1 5 8
M  V30 8 2 6 9
M  V30 9 2 7 10
M  V30 10 1 7 11
M  V30 11 1 8 12
M  V30 12 1 9 13
M  V30 13 1 11 14
M  V30 14 1 11 15
M  V30 15 1 13 16
M  V30 16 1 13 17
M  V30 17 1 13 18
M  V30 18 1 9 10
M  V30 19 1 11 12
M  V30 END BOND
M  V30 END CTAB
M  END
>  <Molecule Name>
Celestolide

>  <Order (spectra)>
151

>  <NAME>
Celestolide

>  <Molecular Formula>
C17H24O

>  <Monoisotopic Mass>
244.182715

>  <SMILES>
CC(=O)C1=CC(=CC2=C1CCC2(C)C)C(C)(C)C

>  <InChI>
InChI=1S/C17H24O/c1-11(18)14-9-12(16(2,3)4)10-15-13(14)7-8-17(15,5)6/h9-10H,7-8H2,1-6H3

>  <InChIKey>
IKTHMQYJOWTSJO-UHFFFAOYSA-N

>  <Kingdom>
Organic compounds

>  <Superclass>
Benzenoids

>  <Class>
Indanes

>  <Subclass>


>  <Parent Level 1>
Indanes

>  <Parent Level 2>


>  <Parent Level 3>


>  <cLogP>
4.3785

>  <cLogS>
-4.939

>  <Druglikeness>
-6.6039

>  <NP-class probability>
0.84

>  <SmilesFragFp 3>


>  <MS_READY_SMILES>
CC(=O)C1=CC(=CC2=C1CCC2(C)C)C(C)(C)C

>  <MS_READY_InChI>
InChI=1S/C17H24O/c1-11(18)14-9-12(16(2,3)4)10-15-13(14)7-8-17(15,5)6/h9-10H,7-8H2,1-6H3

>  <QSAR_READY_SMILES>
CC(=O)C1=CC(=CC2=C1CCC2(C)C)C(C)(C)C

>  <QSAR_READY_InChI>
InChI=1S/C17H24O/c1-11(18)14-9-12(16(2,3)4)10-15-13(14)7-8-17(15,5)6/h9-10H,7-8H2,1-6H3

>  <DTXSID>
DTXSID9044536

>  <DTXCID>
DTXCID7024536

>  <CASRN>
13171-00-1

>  <EXPOCAST_MEDIAN_EXPOSURE_PREDICTION_MG/KG-BW/DAY>
1.31E-05

>  <BIOCONCENTRATION_FACTOR_TEST_PRED>
788.86

>  <BOILING_POINT_DEGC_TEST_PRED>
307.154

>  <48HR_DAPHNIA_LC50_MOL/L_TEST_PRED>
4.81E-06

>  <DENSITY_G/CM^3_TEST_PRED>
0.932

>  <DEVTOX_TEST_PRED>
0.708

>  <96HR_FATHEAD_MINNOW_MOL/L_TEST_PRED>
2.08E-06

>  <FLASH_POINT_DEGC_TEST_PRED>
130.57

>  <MELTING_POINT_DEGC_TEST_PRED>
46.902

>  <AMES_MUTAGENICITY_TEST_PRED>
-0.02

>  <ORAL_RAT_LD50_MOL/KG_TEST_PRED>
0.00341193

>  <SURFACE_TENSION_DYN/CM_TEST_PRED>
-

>  <THERMAL_CONDUCTIVITY_MW/(M*K)_TEST_PRED>
110.1

>  <TETRAHYMENA_PYRIFORMIS_IGC50_MOL/L_TEST_PRED>
1.14E-05

>  <VISCOSITY_CP_CP_TEST_PRED>
-

>  <VAPOR_PRESSURE_MMHG_TEST_PRED>
0.000239332

>  <WATER_SOLUBILITY_MOL/L_TEST_PRED>
2.64E-05

>  <ATMOSPHERIC_HYDROXYLATION_RATE_(AOH)_CM3/MOLECULE*SEC_OPERA_PRED>
1.37E-11

>  <BIOCONCENTRATION_FACTOR_OPERA_PRED>
854.156

>  <BIODEGRADATION_HALF_LIFE_DAYS_DAYS_OPERA_PRED>
5.39256

>  <BOILING_POINT_DEGC_OPERA_PRED>
322.909

>  <HENRYS_LAW_ATM-M3/MOLE_OPERA_PRED>
2.09E-05

>  <OPERA_KM_DAYS_OPERA_PRED>
0.33519

>  <OCTANOL_AIR_PARTITION_COEFF_LOGKOA_OPERA_PRED>
8.34219

>  <SOIL_ADSORPTION_COEFFICIENT_KOC_L/KG_OPERA_PRED>
5938.29

>  <OCTANOL_WATER_PARTITION_LOGP_OPERA_PRED>
5.3667

>  <MELTING_POINT_DEGC_OPERA_PRED>
41.631

>  <VAPOR_PRESSURE_MMHG_OPERA_PRED>
0.000471388

>  <WATER_SOLUBILITY_MOL/L_OPERA_PRED>
4.71E-06

>  <Shape Index>
0.38889

>  <Molecular Flexibility>
0.36989

>  <Molecular Complexity>
0.79273

>  <Electronegative Atoms>
1

>  <Stereo Centers>
0

>  <Rotatable Bonds>
2

>  <Rings Closures>
2

>  <Aromatic Rings>
1

>  <Aromatic Atoms>
6

>  <Amides>
0

>  <Amines>
0

>  <Aromatic Nitrogens>
0

>  <Shape Index 2>
0.38889

>  <Molecular Flexibility 2>
0.36989

>  <Molecular Complexity 2>
0.79273

>  <Non-C/H Atoms>
1

>  <Electronegative Atoms 2>
1

>  <Stereo Centers 2>
0

>  <Rotatable Bonds 2>
2

>  <Rings Closures 2>
2

>  <Aromatic Rings 2>
1

>  <Aromatic Atoms 2>
6

>  <sp3-Atoms>
10

>  <Amides 2>
0

>  <Amines 2>
0

>  <Aromatic Nitrogens 2>
0

>  <Basic Nitrogens>
0

$$$$
Phantolide
Actelion Java MolfileCreator 2.0

  0  0  0  0  0  0              0 V3000
M  V30 BEGIN CTAB
M  V30 COUNTS 18 19 0 0 0
M  V30 BEGIN ATOM
M  V30 1 O 0.0 0.0 0.0 0
M  V30 2 C -1.3056 0.7527 0.0 0
M  V30 3 C -1.3173 2.2583 0.0 0
M  V30 4 C -2.6112 0.0117 0.0 0
M  V30 5 C -0.0352 3.0111 0.0 0
M  V30 6 C -2.623 3.0111 0.0 0
M  V30 7 C -0.047 4.5167 0.0 0
M  V30 8 C 1.2468 2.2701 0.0 0
M  V30 9 C -2.6347 4.5167 0.0 0
M  V30 10 C -1.3526 5.2695 0.0 0
M  V30 11 C -3.7522 5.5283 0.0 0
M  V30 12 C -1.6702 6.7398 0.0 0
M  V30 13 C -3.1523 6.9045 0.0 0 CFG=2
M  V30 14 C -5.1872 5.9988 0.0 0
M  V30 15 C -4.8696 4.5403 0.0 0
M  V30 16 C -0.2587 7.2103 0.0 0
M  V30 17 C -1.3762 8.2102 0.0 0
M  V30 18 C -3.9169 8.2102 0.0 0
M  V30 END ATOM
M  V30 BEGIN BOND
M  V30 1 2 1 2
M  V30 2 1 2 3
M  V30 3 1 2 4
M  V30 4 2 3 5
M  V30 5 1 3 6
M  V30 6 1 5 7
M  V30 7 1 5 8
M  V30 8 2 6 9
M  V30 9 2 7 10
M  V30 10 1 9 11
M  V30 11 1 10 12
M  V30 12 1 11 13
M  V30 13 1 11 14
M  V30 14 1 11 15
M  V30 15 1 12 16
M  V30 16 1 12 17
M  V30 17 1 13 18 CFG=1
M  V30 18 1 9 10
M  V30 19 1 12 13
M  V30 END BOND
M  V30 BEGIN COLLECTION
M  V30 MDLV30/STERAC1 ATOMS=(1 13)
M  V30 END COLLECTION
M  V30 END CTAB
M  END
>  <Molecule Name>
Phantolide

>  <Order (spectra)>
152

>  <NAME>
Phantolide

>  <Molecular Formula>
C17H24O

>  <Monoisotopic Mass>
244.182715

>  <SMILES>
CC1C(C)(C)C2=C(C=C(C(C)=O)C(C)=C2)C1(C)C

>  <InChI>
InChI=1S/C17H24O/c1-10-8-14-15(9-13(10)11(2)18)17(6,7)12(3)16(14,4)5/h8-9,12H,1-7H3/t12-/m1/s1

>  <InChIKey>
VDBHOHJWUDKDRW-UHFFFAOYSA-N

>  <Kingdom>
Organic compounds

>  <Superclass>
Benzenoids

>  <Class>
Indanes

>  <Subclass>


>  <Parent Level 1>
Indanes

>  <Parent Level 2>


>  <Parent Level 3>


>  <cLogP>
3.8608

>  <cLogS>
-4.94

>  <Druglikeness>
-2.5404

>  <NP-class probability>
0.81

>  <SmilesFragFp 3>


>  <MS_READY_SMILES>
CC1C(C)(C)C2=C(C=C(C(C)=O)C(C)=C2)C1(C)C

>  <MS_READY_InChI>
InChI=1S/C17H24O/c1-10-8-14-15(9-13(10)11(2)18)17(6,7)12(3)16(14,4)5/h8-9,12H,1-7H3/t12-/m1/s1

>  <QSAR_READY_SMILES>
CC1C(C)(C)C2=C(C=C(C(C)=O)C(C)=C2)C1(C)C

>  <QSAR_READY_InChI>
InChI=1S/C17H24O/c1-10-8-14-15(9-13(10)11(2)18)17(6,7)12(3)16(14,4)5/h8-9,12H,1-7H3/t12-/m1/s1

>  <DTXSID>
DTXSID9051743

>  <DTXCID>
DTXCID5030298

>  <CASRN>
15323-35-0

>  <EXPOCAST_MEDIAN_EXPOSURE_PREDICTION_MG/KG-BW/DAY>
5.17E-06

>  <BIOCONCENTRATION_FACTOR_TEST_PRED>
1059.25

>  <BOILING_POINT_DEGC_TEST_PRED>
305.056

>  <48HR_DAPHNIA_LC50_MOL/L_TEST_PRED>
3.94E-06

>  <DENSITY_G/CM^3_TEST_PRED>
0.92

>  <DEVTOX_TEST_PRED>
0.679

>  <96HR_FATHEAD_MINNOW_MOL/L_TEST_PRED>
3.56E-06

>  <FLASH_POINT_DEGC_TEST_PRED>
129.672

>  <MELTING_POINT_DEGC_TEST_PRED>
52.974

>  <AMES_MUTAGENICITY_TEST_PRED>
-0.027

>  <ORAL_RAT_LD50_MOL/KG_TEST_PRED>
0.00300608

>  <SURFACE_TENSION_DYN/CM_TEST_PRED>
-

>  <THERMAL_CONDUCTIVITY_MW/(M*K)_TEST_PRED>
109.841

>  <TETRAHYMENA_PYRIFORMIS_IGC50_MOL/L_TEST_PRED>
1.11E-05

>  <VISCOSITY_CP_CP_TEST_PRED>
-

>  <VAPOR_PRESSURE_MMHG_TEST_PRED>
0.000362243

>  <WATER_SOLUBILITY_MOL/L_TEST_PRED>
2.44E-05

>  <ATMOSPHERIC_HYDROXYLATION_RATE_(AOH)_CM3/MOLECULE*SEC_OPERA_PRED>
1.37E-11

>  <BIOCONCENTRATION_FACTOR_OPERA_PRED>
809.411

>  <BIODEGRADATION_HALF_LIFE_DAYS_DAYS_OPERA_PRED>
5.31106

>  <BOILING_POINT_DEGC_OPERA_PRED>
322.363

>  <HENRYS_LAW_ATM-M3/MOLE_OPERA_PRED>
2.07E-05

>  <OPERA_KM_DAYS_OPERA_PRED>
1.15493

>  <OCTANOL_AIR_PARTITION_COEFF_LOGKOA_OPERA_PRED>
8.41407

>  <SOIL_ADSORPTION_COEFFICIENT_KOC_L/KG_OPERA_PRED>
3012.93

>  <OCTANOL_WATER_PARTITION_LOGP_OPERA_PRED>
5.26151

>  <MELTING_POINT_DEGC_OPERA_PRED>
44.241

>  <VAPOR_PRESSURE_MMHG_OPERA_PRED>
0.00286516

>  <WATER_SOLUBILITY_MOL/L_OPERA_PRED>
7.93E-06

>  <Shape Index>
0.44444

>  <Molecular Flexibility>
0.20471

>  <Molecular Complexity>
0.83186

>  <Electronegative Atoms>
1

>  <Stereo Centers>
1

>  <Rotatable Bonds>
1

>  <Rings Closures>
2

>  <Aromatic Rings>
1

>  <Aromatic Atoms>
6

>  <Amides>
0

>  <Amines>
0

>  <Aromatic Nitrogens>
0

>  <Shape Index 2>
0.44444

>  <Molecular Flexibility 2>
0.20471

>  <Molecular Complexity 2>
0.83186

>  <Non-C/H Atoms>
1

>  <Electronegative Atoms 2>
1

>  <Stereo Centers 2>
1

>  <Rotatable Bonds 2>
1

>  <Rings Closures 2>
2

>  <Aromatic Rings 2>
1

>  <Aromatic Atoms 2>
6

>  <sp3-Atoms>
10

>  <Amides 2>
0

>  <Amines 2>
0

>  <Aromatic Nitrogens 2>
0

>  <Basic Nitrogens>
0

$$$$
Traseolide
Actelion Java MolfileCreator 2.0

  0  0  0  0  0  0              0 V3000
M  V30 BEGIN CTAB
M  V30 COUNTS 19 20 0 0 0
M  V30 BEGIN ATOM
M  V30 1 O 0.0 0.0 0.0 0
M  V30 2 C -0.4718 1.439 0.0 0
M  V30 3 C 0.5189 2.5595 0.0 0
M  V30 4 C -1.9462 1.7574 0.0 0
M  V30 5 C 1.9698 2.2646 0.0 0
M  V30 6 C 0.0471 3.9986 0.0 0
M  V30 7 C 2.9606 3.3852 0.0 0
M  V30 8 C 2.418 0.8492 0.0 0
M  V30 9 C 1.0379 5.1191 0.0 0
M  V30 10 C 2.4888 4.8242 0.0 0
M  V30 11 C 0.8728 6.6171 0.0 0
M  V30 12 C 3.2319 6.1335 0.0 0
M  V30 13 C 2.2293 7.2423 0.0 0
M  V30 14 C -0.4364 7.372 0.0 0
M  V30 15 C 4.5883 5.5319 0.0 0
M  V30 16 C 4.435 7.0299 0.0 0
M  V30 17 C 2.5241 8.7167 0.0 0
M  V30 18 C -0.4482 8.8818 0.0 0
M  V30 19 C -1.7457 6.6289 0.0 0
M  V30 END ATOM
M  V30 BEGIN BOND
M  V30 1 2 1 2
M  V30 2 1 2 3
M  V30 3 1 2 4
M  V30 4 2 3 5
M  V30 5 1 3 6
M  V30 6 1 5 7
M  V30 7 1 5 8
M  V30 8 2 6 9
M  V30 9 2 7 10
M  V30 10 1 9 11
M  V30 11 1 10 12
M  V30 12 1 11 13
M  V30 13 1 11 14
M  V30 14 1 12 15
M  V30 15 1 12 16
M  V30 16 1 13 17
M  V30 17 1 14 18
M  V30 18 1 14 19
M  V30 19 1 9 10
M  V30 20 1 12 13
M  V30 END BOND
M  V30 END CTAB
M  END
>  <Molecule Name>
Traseolide

>  <Order (spectra)>
154

>  <NAME>
Traseolide

>  <Molecular Formula>
C18H26O

>  <Monoisotopic Mass>
258.198365

>  <SMILES>
CC(C)C1C(C)C(C)(C)C2=CC(C)=C(C=C12)C(C)=O

>  <InChI>
InChI=1S/C18H26O/c1-10(2)17-12(4)18(6,7)16-8-11(3)14(13(5)19)9-15(16)17/h8-10,12,17H,1-7H3

>  <InChIKey>
IMRYETFJNLKUHK-UHFFFAOYSA-N

>  <Kingdom>
Organic compounds

>  <Superclass>
Benzenoids

>  <Class>
Indanes

>  <Subclass>


>  <Parent Level 1>
Indanes

>  <Parent Level 2>


>  <Parent Level 3>


>  <cLogP>
4.7615

>  <cLogS>
-5.081

>  <Druglikeness>
-2.7714

>  <NP-class probability>
0.81

>  <SmilesFragFp 3>


>  <MS_READY_SMILES>
CC(C)C1C(C)C(C)(C)C2=CC(C)=C(C=C12)C(C)=O

>  <MS_READY_InChI>
InChI=1S/C18H26O/c1-10(2)17-12(4)18(6,7)16-8-11(3)14(13(5)19)9-15(16)17/h8-10,12,17H,1-7H3

>  <QSAR_READY_SMILES>
CC(C)C1C(C)C(C)(C)C2=CC(C)=C(C=C12)C(C)=O

>  <QSAR_READY_InChI>
InChI=1S/C18H26O/c1-10(2)17-12(4)18(6,7)16-8-11(3)14(13(5)19)9-15(16)17/h8-10,12,17H,1-7H3

>  <DTXSID>
DTXSID9052393

>  <DTXCID>
DTXCID9030965

>  <CASRN>
68140-48-7

>  <EXPOCAST_MEDIAN_EXPOSURE_PREDICTION_MG/KG-BW/DAY>
5.69E-06

>  <BIOCONCENTRATION_FACTOR_TEST_PRED>
744.732

>  <BOILING_POINT_DEGC_TEST_PRED>
288.455

>  <48HR_DAPHNIA_LC50_MOL/L_TEST_PRED>
2.91E-06

>  <DENSITY_G/CM^3_TEST_PRED>
0.921

>  <DEVTOX_TEST_PRED>
0.655

>  <96HR_FATHEAD_MINNOW_MOL/L_TEST_PRED>
1.78E-06

>  <FLASH_POINT_DEGC_TEST_PRED>
138.569

>  <MELTING_POINT_DEGC_TEST_PRED>
44.288

>  <AMES_MUTAGENICITY_TEST_PRED>
-0.008

>  <ORAL_RAT_LD50_MOL/KG_TEST_PRED>
0.00187932

>  <SURFACE_TENSION_DYN/CM_TEST_PRED>
-

>  <THERMAL_CONDUCTIVITY_MW/(M*K)_TEST_PRED>
112.192

>  <TETRAHYMENA_PYRIFORMIS_IGC50_MOL/L_TEST_PRED>
8.07E-06

>  <VISCOSITY_CP_CP_TEST_PRED>
-

>  <VAPOR_PRESSURE_MMHG_TEST_PRED>
4.60E-05

>  <WATER_SOLUBILITY_MOL/L_TEST_PRED>
6.52E-06

>  <ATMOSPHERIC_HYDROXYLATION_RATE_(AOH)_CM3/MOLECULE*SEC_OPERA_PRED>
1.37E-11

>  <BIOCONCENTRATION_FACTOR_OPERA_PRED>
671.887

>  <BIODEGRADATION_HALF_LIFE_DAYS_DAYS_OPERA_PRED>
4.80667

>  <BOILING_POINT_DEGC_OPERA_PRED>
324.191

>  <HENRYS_LAW_ATM-M3/MOLE_OPERA_PRED>
4.78E-05

>  <OPERA_KM_DAYS_OPERA_PRED>
1.2094

>  <OCTANOL_AIR_PARTITION_COEFF_LOGKOA_OPERA_PRED>
7.87827

>  <SOIL_ADSORPTION_COEFFICIENT_KOC_L/KG_OPERA_PRED>
5422.64

>  <OCTANOL_WATER_PARTITION_LOGP_OPERA_PRED>
5.59009

>  <MELTING_POINT_DEGC_OPERA_PRED>
44.8565

>  <VAPOR_PRESSURE_MMHG_OPERA_PRED>
4.45E-05

>  <WATER_SOLUBILITY_MOL/L_OPERA_PRED>
5.59E-06

>  <Shape Index>
0.42105

>  <Molecular Flexibility>
0.30724

>  <Molecular Complexity>
0.83438

>  <Electronegative Atoms>
1

>  <Stereo Centers>
2

>  <Rotatable Bonds>
2

>  <Rings Closures>
2

>  <Aromatic Rings>
1

>  <Aromatic Atoms>
6

>  <Amides>
0

>  <Amines>
0

>  <Aromatic Nitrogens>
0

>  <Shape Index 2>
0.42105

>  <Molecular Flexibility 2>
0.30724

>  <Molecular Complexity 2>
0.83438

>  <Non-C/H Atoms>
1

>  <Electronegative Atoms 2>
1

>  <Stereo Centers 2>
2

>  <Rotatable Bonds 2>
2

>  <Rings Closures 2>
2

>  <Aromatic Rings 2>
1

>  <Aromatic Atoms 2>
6

>  <sp3-Atoms>
11

>  <Amides 2>
0

>  <Amines 2>
0

>  <Aromatic Nitrogens 2>
0

>  <Basic Nitrogens>
0

$$$$
Phosmet
Actelion Java MolfileCreator 2.0

  0  0  0  0  0  0              0 V3000
M  V30 BEGIN CTAB
M  V30 COUNTS 15 16 0 0 0
M  V30 BEGIN ATOM
M  V30 1 O 0.0 0.0 0.0 0
M  V30 2 C 1.1028 -0.9961 0.0 0
M  V30 3 N 0.9368 -2.4784 0.0 0
M  V30 4 C 2.5614 -0.6759 0.0 0
M  V30 5 C 2.3005 -3.0831 0.0 0
M  V30 6 C -0.3794 -3.2254 0.0 0
M  V30 7 C 3.2966 -1.9684 0.0 0
M  V30 8 C 3.2966 0.6403 0.0 0
M  V30 9 O 2.5969 -4.5417 0.0 0
M  V30 10 C -1.6957 -2.4665 0.0 0
M  V30 11 C 4.7907 -1.9566 0.0 0
M  V30 12 C 4.7907 0.6522 0.0 0
M  V30 13 O -1.7076 -0.9486 0.0 0
M  V30 14 O -3.012 -3.2136 0.0 0
M  V30 15 C 5.5378 -0.6403 0.0 0
M  V30 END ATOM
M  V30 BEGIN BOND
M  V30 1 2 1 2
M  V30 2 1 2 3
M  V30 3 1 2 4
M  V30 4 1 3 5
M  V30 5 1 3 6
M  V30 6 2 4 7
M  V30 7 1 4 8
M  V30 8 2 5 9
M  V30 9 1 6 10
M  V30 10 1 7 11
M  V30 11 2 8 12
M  V30 12 2 10 13
M  V30 13 1 10 14
M  V30 14 2 11 15
M  V30 15 1 5 7
M  V30 16 1 12 15
M  V30 END BOND
M  V30 END CTAB
M  END
>  <Molecule Name>
Phosmet

>  <Order (spectra)>
213

>  <NAME>
Phosmet

>  <Molecular Formula>
C10H7NO4

>  <Monoisotopic Mass>
205.037509

>  <SMILES>
OC(=O)CN1C(=O)C2=CC=CC=C2C1=O

>  <InChI>
InChI=1S/C10H7NO4/c12-8(13)5-11-9(14)6-3-1-2-4-7(6)10(11)15/h1-4H,5H2,(H,12,13)

>  <InChIKey>
WQINSVOOIJDOLJ-UHFFFAOYSA-N

>  <Kingdom>
Organic compounds

>  <Superclass>
Organoheterocyclic compounds

>  <Class>
Indoles and derivatives

>  <Subclass>
Indolyl carboxylic acids and derivatives

>  <Parent Level 1>
Indolyl carboxylic acids and derivatives

>  <Parent Level 2>


>  <Parent Level 3>


>  <cLogP>
0.1236

>  <cLogS>
-1.4

>  <Druglikeness>
-2.9986

>  <NP-class probability>
0.17

>  <SmilesFragFp 3>


>  <MS_READY_SMILES>
OC(=O)CN1C(=O)C2=CC=CC=C2C1=O

>  <MS_READY_InChI>
InChI=1S/C10H7NO4/c12-8(13)5-11-9(14)6-3-1-2-4-7(6)10(11)15/h1-4H,5H2,(H,12,13)

>  <QSAR_READY_SMILES>
OC(=O)CN1C(=O)C2=CC=CC=C2C1=O

>  <QSAR_READY_InChI>
InChI=1S/C10H7NO4/c12-8(13)5-11-9(14)6-3-1-2-4-7(6)10(11)15/h1-4H,5H2,(H,12,13)

>  <DTXSID>
DTXSID00197005

>  <DTXCID>
DTXCID70119496

>  <CASRN>
4702-13-0

>  <EXPOCAST_MEDIAN_EXPOSURE_PREDICTION_MG/KG-BW/DAY>
-

>  <BIOCONCENTRATION_FACTOR_TEST_PRED>
0.322107

>  <BOILING_POINT_DEGC_TEST_PRED>
386.482

>  <48HR_DAPHNIA_LC50_MOL/L_TEST_PRED>
0.00214783

>  <DENSITY_G/CM^3_TEST_PRED>
1.438

>  <DEVTOX_TEST_PRED>
0.889

>  <96HR_FATHEAD_MINNOW_MOL/L_TEST_PRED>
0.000199986

>  <FLASH_POINT_DEGC_TEST_PRED>
189.85

>  <MELTING_POINT_DEGC_TEST_PRED>
165.586

>  <AMES_MUTAGENICITY_TEST_PRED>
0.437

>  <ORAL_RAT_LD50_MOL/KG_TEST_PRED>
0.00550808

>  <SURFACE_TENSION_DYN/CM_TEST_PRED>
-

>  <THERMAL_CONDUCTIVITY_MW/(M*K)_TEST_PRED>
-

>  <TETRAHYMENA_PYRIFORMIS_IGC50_MOL/L_TEST_PRED>
0.00479733

>  <VISCOSITY_CP_CP_TEST_PRED>
-

>  <VAPOR_PRESSURE_MMHG_TEST_PRED>
3.79E-06

>  <WATER_SOLUBILITY_MOL/L_TEST_PRED>
0.0273527

>  <ATMOSPHERIC_HYDROXYLATION_RATE_(AOH)_CM3/MOLECULE*SEC_OPERA_PRED>
7.19E-12

>  <BIOCONCENTRATION_FACTOR_OPERA_PRED>
3.27502

>  <BIODEGRADATION_HALF_LIFE_DAYS_DAYS_OPERA_PRED>
3.54935

>  <BOILING_POINT_DEGC_OPERA_PRED>
314.809

>  <HENRYS_LAW_ATM-M3/MOLE_OPERA_PRED>
1.99E-09

>  <OPERA_KM_DAYS_OPERA_PRED>
0.0691933

>  <OCTANOL_AIR_PARTITION_COEFF_LOGKOA_OPERA_PRED>
9.9479

>  <SOIL_ADSORPTION_COEFFICIENT_KOC_L/KG_OPERA_PRED>
68.9486

>  <OCTANOL_WATER_PARTITION_LOGP_OPERA_PRED>
0.859157

>  <MELTING_POINT_DEGC_OPERA_PRED>
152.159

>  <VAPOR_PRESSURE_MMHG_OPERA_PRED>
4.43E-08

>  <WATER_SOLUBILITY_MOL/L_OPERA_PRED>
0.00245681

>  <Shape Index>
0.53333

>  <Molecular Flexibility>
0.33428

>  <Molecular Complexity>
0.76113

>  <Electronegative Atoms>
5

>  <Stereo Centers>
0

>  <Rotatable Bonds>
2

>  <Rings Closures>
2

>  <Aromatic Rings>
1

>  <Aromatic Atoms>
6

>  <Amides>
1

>  <Amines>
0

>  <Aromatic Nitrogens>
0

>  <Shape Index 2>
0.53333

>  <Molecular Flexibility 2>
0.33428

>  <Molecular Complexity 2>
0.76113

>  <Non-C/H Atoms>
5

>  <Electronegative Atoms 2>
5

>  <Stereo Centers 2>
0

>  <Rotatable Bonds 2>
2

>  <Rings Closures 2>
2

>  <Aromatic Rings 2>
1

>  <Aromatic Atoms 2>
6

>  <sp3-Atoms>
2

>  <Amides 2>
1

>  <Amines 2>
0

>  <Aromatic Nitrogens 2>
0

>  <Basic Nitrogens>
0

$$$$
Rotenone
Actelion Java MolfileCreator 2.0

  0  0  0  0  0  0              0 V3000
M  V30 BEGIN CTAB
M  V30 COUNTS 29 33 0 0 0
M  V30 BEGIN ATOM
M  V30 1 O 0.0 0.0 0.0 0
M  V30 2 C -1.512 0.0118 0.0 0
M  V30 3 C -2.2681 1.323 0.0 0
M  V30 4 C -2.2681 -1.2758 0.0 0 CFG=1
M  V30 5 C -3.7802 1.3348 0.0 0
M  V30 6 C -1.5357 2.6343 0.0 0
M  V30 7 C -1.5357 -2.5634 0.0 0
M  V30 8 C -3.7802 -1.264 0.0 0 CFG=2
M  V30 9 O -4.5362 0.0472 0.0 0
M  V30 10 C -4.5362 2.6461 0.0 0
M  V30 11 C -2.2917 3.9455 0.0 0
M  V30 12 C -2.2917 -3.851 0.0 0
M  V30 13 C -0.0472 -2.5516 0.0 0
M  V30 14 C -4.5362 -2.5516 0.0 0
M  V30 15 C -3.8038 3.9573 0.0 0
M  V30 16 C -6.0128 2.965 0.0 0
M  V30 17 O -3.8038 -3.8392 0.0 0
M  V30 18 C -1.5593 -5.1387 0.0 0
M  V30 19 C 0.6851 -3.8392 0.0 0
M  V30 20 O -4.8197 5.0796 0.0 0
M  V30 21 C -6.1782 4.4653 0.0 0 CFG=1
M  V30 22 C -0.0708 -5.1268 0.0 0
M  V30 23 O 2.1736 -3.8274 0.0 0
M  V30 24 C -7.4895 5.2214 0.0 0
M  V30 25 O 0.6615 -6.4145 0.0 0
M  V30 26 C 2.906 -2.5161 0.0 0
M  V30 27 C -7.5013 6.7334 0.0 0
M  V30 28 C -8.8007 4.4889 0.0 0
M  V30 29 C 2.1499 -6.4027 0.0 0
M  V30 END ATOM
M  V30 BEGIN BOND
M  V30 1 2 1 2
M  V30 2 1 2 3
M  V30 3 1 4 2 CFG=1
M  V30 4 2 3 5
M  V30 5 1 3 6
M  V30 6 1 4 7
M  V30 7 1 4 8
M  V30 8 1 5 9
M  V30 9 1 5 10
M  V30 10 2 6 11
M  V30 11 2 7 12
M  V30 12 1 7 13
M  V30 13 1 8 14
M  V30 14 2 10 15
M  V30 15 1 10 16
M  V30 16 1 12 17
M  V30 17 1 12 18
M  V30 18 2 13 19
M  V30 19 1 15 20
M  V30 20 1 16 21
M  V30 21 2 18 22
M  V30 22 1 19 23
M  V30 23 1 21 24 CFG=3
M  V30 24 1 22 25
M  V30 25 1 23 26
M  V30 26 2 24 27
M  V30 27 1 24 28
M  V30 28 1 25 29
M  V30 29 1 8 9 CFG=1
M  V30 30 1 11 15
M  V30 31 1 14 17
M  V30 32 1 19 22
M  V30 33 1 20 21
M  V30 END BOND
M  V30 BEGIN COLLECTION
M  V30 MDLV30/STEABS ATOMS=(3 4 8 21)
M  V30 END COLLECTION
M  V30 END CTAB
M  END
>  <Molecule Name>
Rotenone

>  <Order (spectra)>
310

>  <NAME>
Rotenone

>  <Molecular Formula>
C23H22O6

>  <Monoisotopic Mass>
394.14164

>  <SMILES>
[H][C@@]12COC3=C(C=C(OC)C(OC)=C3)[C@]1([H])C(=O)C1=CC=C3O[C@H](CC3=C1O2)C(C)=C

>  <InChI>
InChI=1S/C23H22O6/c1-11(2)16-8-14-15(28-16)6-5-12-22(24)21-13-7-18(25-3)19(26-4)9-17(13)27-10-20(21)29-23(12)14/h5-7,9,16,20-21H,1,8,10H2,2-4H3/t16-,20-,21-/m0/s1

>  <InChIKey>
JUVIOZPCNVVQFO-HBGVWJBISA-N

>  <Kingdom>
Organic compounds

>  <Superclass>
Phenylpropanoids and polyketides

>  <Class>
Isoflavonoids

>  <Subclass>
Rotenoids

>  <Parent Level 1>
Rotenones

>  <Parent Level 2>


>  <Parent Level 3>


>  <cLogP>
4.5323

>  <cLogS>
-5.023

>  <Druglikeness>
-13.554

>  <NP-class probability>
1

>  <SmilesFragFp 3>


>  <MS_READY_SMILES>
COC1=CC2=C(C=C1OC)C1C(CO2)OC2=C3CC(OC3=CC=C2C1=O)C(C)=C

>  <MS_READY_InChI>
InChI=1S/C23H22O6/c1-11(2)16-8-14-15(28-16)6-5-12-22(24)21-13-7-18(25-3)19(26-4)9-17(13)27-10-20(21)29-23(12)14/h5-7,9,16,20-21H,1,8,10H2,2-4H3

>  <QSAR_READY_SMILES>
COC1=CC2=C(C=C1OC)C1C(CO2)OC2=C3CC(OC3=CC=C2C1=O)C(C)=C

>  <QSAR_READY_InChI>
InChI=1S/C23H22O6/c1-11(2)16-8-14-15(28-16)6-5-12-22(24)21-13-7-18(25-3)19(26-4)9-17(13)27-10-20(21)29-23(12)14/h5-7,9,16,20-21H,1,8,10H2,2-4H3

>  <DTXSID>
DTXSID6021248

>  <DTXCID>
DTXCID901248

>  <CASRN>
83-79-4

>  <EXPOCAST_MEDIAN_EXPOSURE_PREDICTION_MG/KG-BW/DAY>
1.14E-06

>  <BIOCONCENTRATION_FACTOR_TEST_PRED>
35.8096

>  <BOILING_POINT_DEGC_TEST_PRED>
523.472

>  <48HR_DAPHNIA_LC50_MOL/L_TEST_PRED>
2.37E-06

>  <DENSITY_G/CM^3_TEST_PRED>
1.293

>  <DEVTOX_TEST_PRED>
0.863

>  <96HR_FATHEAD_MINNOW_MOL/L_TEST_PRED>
9.82E-08

>  <FLASH_POINT_DEGC_TEST_PRED>
235.279

>  <MELTING_POINT_DEGC_TEST_PRED>
175.545

>  <AMES_MUTAGENICITY_TEST_PRED>
0.333

>  <ORAL_RAT_LD50_MOL/KG_TEST_PRED>
0.000709578

>  <SURFACE_TENSION_DYN/CM_TEST_PRED>
-

>  <THERMAL_CONDUCTIVITY_MW/(M*K)_TEST_PRED>
-

>  <TETRAHYMENA_PYRIFORMIS_IGC50_MOL/L_TEST_PRED>
-

>  <VISCOSITY_CP_CP_TEST_PRED>
-

>  <VAPOR_PRESSURE_MMHG_TEST_PRED>
1.18E-10

>  <WATER_SOLUBILITY_MOL/L_TEST_PRED>
2.48E-05

>  <ATMOSPHERIC_HYDROXYLATION_RATE_(AOH)_CM3/MOLECULE*SEC_OPERA_PRED>
1.24E-10

>  <BIOCONCENTRATION_FACTOR_OPERA_PRED>
25.7136

>  <BIODEGRADATION_HALF_LIFE_DAYS_DAYS_OPERA_PRED>
3.36189

>  <BOILING_POINT_DEGC_OPERA_PRED>
425.934

>  <HENRYS_LAW_ATM-M3/MOLE_OPERA_PRED>
1.81E-09

>  <OPERA_KM_DAYS_OPERA_PRED>
0.257335

>  <OCTANOL_AIR_PARTITION_COEFF_LOGKOA_OPERA_PRED>
11.695

>  <SOIL_ADSORPTION_COEFFICIENT_KOC_L/KG_OPERA_PRED>
10020

>  <OCTANOL_WATER_PARTITION_LOGP_OPERA_PRED>
4.09762

>  <MELTING_POINT_DEGC_OPERA_PRED>
176.003

>  <VAPOR_PRESSURE_MMHG_OPERA_PRED>
1.67E-10

>  <WATER_SOLUBILITY_MOL/L_OPERA_PRED>
1.29E-05

>  <Shape Index>
0.51724

>  <Molecular Flexibility>
0.13509

>  <Molecular Complexity>
0.97949

>  <Electronegative Atoms>
6

>  <Stereo Centers>
3

>  <Rotatable Bonds>
3

>  <Rings Closures>
5

>  <Aromatic Rings>
2

>  <Aromatic Atoms>
12

>  <Amides>
0

>  <Amines>
0

>  <Aromatic Nitrogens>
0

>  <Shape Index 2>
0.51724

>  <Molecular Flexibility 2>
0.13509

>  <Molecular Complexity 2>
0.97949

>  <Non-C/H Atoms>
6

>  <Electronegative Atoms 2>
6

>  <Stereo Centers 2>
3

>  <Rotatable Bonds 2>
3

>  <Rings Closures 2>
5

>  <Aromatic Rings 2>
2

>  <Aromatic Atoms 2>
12

>  <sp3-Atoms>
13

>  <Amides 2>
0

>  <Amines 2>
0

>  <Aromatic Nitrogens 2>
0

>  <Basic Nitrogens>
0

$$$$
cis-Tetramethrin
Actelion Java MolfileCreator 2.0

  0  0  0  0  0  0              0 V3000
M  V30 BEGIN CTAB
M  V30 COUNTS 24 26 0 0 0
M  V30 BEGIN ATOM
M  V30 1 O 0.0 0.0 0.0 0
M  V30 2 C -0.319 -1.4535 0.0 0
M  V30 3 N -1.7017 -2.0562 0.0 0
M  V30 4 C 0.6736 -2.5526 0.0 0
M  V30 5 C -1.5599 -3.5334 0.0 0
M  V30 6 C -3.0135 -1.2999 0.0 0
M  V30 7 C -0.0827 -3.8407 0.0 0
M  V30 8 C 2.1626 -2.5407 0.0 0
M  V30 9 O -2.6826 -4.5261 0.0 0
M  V30 10 O -4.3252 -2.0444 0.0 0
M  V30 11 C 0.6617 -5.1288 0.0 0
M  V30 12 C 2.9071 -3.8289 0.0 0
M  V30 13 C -5.637 -1.2881 0.0 0
M  V30 14 C 2.1508 -5.117 0.0 0
M  V30 15 O -5.6488 0.2245 0.0 0
M  V30 16 C -6.9487 -2.0326 0.0 0 CFG=2
M  V30 17 C -8.4614 -2.0208 0.0 0
M  V30 18 C -7.7051 -3.3207 0.0 0 CFG=2
M  V30 19 C -9.2177 -0.709 0.0 0
M  V30 20 C -9.974 -2.009 0.0 0
M  V30 21 C -7.7169 -4.8097 0.0 0
M  V30 22 C -9.0286 -5.5424 0.0 0
M  V30 23 C -10.3404 -4.7861 0.0 0
M  V30 24 C -9.0405 -7.0315 0.0 0
M  V30 END ATOM
M  V30 BEGIN BOND
M  V30 1 2 1 2
M  V30 2 1 2 3
M  V30 3 1 2 4
M  V30 4 1 3 5
M  V30 5 1 3 6
M  V30 6 2 4 7
M  V30 7 1 4 8
M  V30 8 2 5 9
M  V30 9 1 6 10
M  V30 10 1 7 11
M  V30 11 1 8 12
M  V30 12 1 10 13
M  V30 13 1 11 14
M  V30 14 2 13 15
M  V30 15 1 16 13 CFG=1
M  V30 16 1 16 17
M  V30 17 1 16 18
M  V30 18 1 17 19
M  V30 19 1 17 20
M  V30 20 1 18 21 CFG=1
M  V30 21 2 21 22
M  V30 22 1 22 23
M  V30 23 1 22 24
M  V30 24 1 5 7
M  V30 25 1 12 14
M  V30 26 1 17 18
M  V30 END BOND
M  V30 BEGIN COLLECTION
M  V30 MDLV30/STEABS ATOMS=(2 16 18)
M  V30 END COLLECTION
M  V30 END CTAB
M  END
>  <Molecule Name>
cis-Tetramethrin

>  <Order (spectra)>
76

>  <NAME>
cis-Tetramethrin

>  <Molecular Formula>
C19H25NO4

>  <Monoisotopic Mass>
331.178359

>  <SMILES>
CC(C)=C[C@@H]1[C@H](C(=O)OCN2C(=O)C3=C(CCCC3)C2=O)C1(C)C

>  <InChI>
InChI=1S/C19H25NO4/c1-11(2)9-14-15(19(14,3)4)18(23)24-10-20-16(21)12-7-5-6-8-13(12)17(20)22/h9,14-15H,5-8,10H2,1-4H3/t14-,15+/m0/s1

>  <InChIKey>
CXBMCYHAMVGWJQ-HUUCEWRRSA-N

>  <Kingdom>
Organic compounds

>  <Superclass>
Organoheterocyclic compounds

>  <Class>
Isoindoles and derivatives

>  <Subclass>
Isoindolines

>  <Parent Level 1>
Isoindolones

>  <Parent Level 2>


>  <Parent Level 3>


>  <cLogP>
2.9536

>  <cLogS>
-3.284

>  <Druglikeness>
-2.6054

>  <NP-class probability>
0.53

>  <SmilesFragFp 3>


>  <MS_READY_SMILES>
CC(C)=CC1C(C(=O)OCN2C(=O)C3=C(CCCC3)C2=O)C1(C)C

>  <MS_READY_InChI>
InChI=1S/C19H25NO4/c1-11(2)9-14-15(19(14,3)4)18(23)24-10-20-16(21)12-7-5-6-8-13(12)17(20)22/h9,14-15H,5-8,10H2,1-4H3

>  <QSAR_READY_SMILES>
CC(C)=CC1C(C(=O)OCN2C(=O)C3=C(CCCC3)C2=O)C1(C)C

>  <QSAR_READY_InChI>
InChI=1S/C19H25NO4/c1-11(2)9-14-15(19(14,3)4)18(23)24-10-20-16(21)12-7-5-6-8-13(12)17(20)22/h9,14-15H,5-8,10H2,1-4H3

>  <DTXSID>
DTXSID1058505

>  <DTXCID>
DTXCID1032272

>  <CASRN>
51348-91-5

>  <EXPOCAST_MEDIAN_EXPOSURE_PREDICTION_MG/KG-BW/DAY>
2.94E-07

>  <BIOCONCENTRATION_FACTOR_TEST_PRED>
164.816

>  <BOILING_POINT_DEGC_TEST_PRED>
393.976

>  <48HR_DAPHNIA_LC50_MOL/L_TEST_PRED>
2.62E-07

>  <DENSITY_G/CM^3_TEST_PRED>
1.193

>  <DEVTOX_TEST_PRED>
0.92

>  <96HR_FATHEAD_MINNOW_MOL/L_TEST_PRED>
2.20E-07

>  <FLASH_POINT_DEGC_TEST_PRED>
219.765

>  <MELTING_POINT_DEGC_TEST_PRED>
85.214

>  <AMES_MUTAGENICITY_TEST_PRED>
0.76

>  <ORAL_RAT_LD50_MOL/KG_TEST_PRED>
0.0150314

>  <SURFACE_TENSION_DYN/CM_TEST_PRED>
-

>  <THERMAL_CONDUCTIVITY_MW/(M*K)_TEST_PRED>
-

>  <TETRAHYMENA_PYRIFORMIS_IGC50_MOL/L_TEST_PRED>
-

>  <VISCOSITY_CP_CP_TEST_PRED>
-

>  <VAPOR_PRESSURE_MMHG_TEST_PRED>
4.23E-09

>  <WATER_SOLUBILITY_MOL/L_TEST_PRED>
4.71E-06

>  <ATMOSPHERIC_HYDROXYLATION_RATE_(AOH)_CM3/MOLECULE*SEC_OPERA_PRED>
1.46E-10

>  <BIOCONCENTRATION_FACTOR_OPERA_PRED>
8.81393

>  <BIODEGRADATION_HALF_LIFE_DAYS_DAYS_OPERA_PRED>
3.35399

>  <BOILING_POINT_DEGC_OPERA_PRED>
339.127

>  <HENRYS_LAW_ATM-M3/MOLE_OPERA_PRED>
9.76E-06

>  <OPERA_KM_DAYS_OPERA_PRED>
1.52109

>  <OCTANOL_AIR_PARTITION_COEFF_LOGKOA_OPERA_PRED>
11.5741

>  <SOIL_ADSORPTION_COEFFICIENT_KOC_L/KG_OPERA_PRED>
1791.04

>  <OCTANOL_WATER_PARTITION_LOGP_OPERA_PRED>
4.72729

>  <MELTING_POINT_DEGC_OPERA_PRED>
69.0098

>  <VAPOR_PRESSURE_MMHG_OPERA_PRED>
7.03E-06

>  <WATER_SOLUBILITY_MOL/L_OPERA_PRED>
6.49E-06

>  <Shape Index>
0.54167

>  <Molecular Flexibility>
0.42205

>  <Molecular Complexity>
0.84127

>  <Electronegative Atoms>
5

>  <Stereo Centers>
2

>  <Rotatable Bonds>
5

>  <Rings Closures>
3

>  <Aromatic Rings>
0

>  <Aromatic Atoms>
0

>  <Amides>
1

>  <Amines>
0

>  <Aromatic Nitrogens>
0

>  <Shape Index 2>
0.54167

>  <Molecular Flexibility 2>
0.42205

>  <Molecular Complexity 2>
0.84127

>  <Non-C/H Atoms>
5

>  <Electronegative Atoms 2>
5

>  <Stereo Centers 2>
2

>  <Rotatable Bonds 2>
5

>  <Rings Closures 2>
3

>  <Aromatic Rings 2>
0

>  <Aromatic Atoms 2>
0

>  <sp3-Atoms>
13

>  <Amides 2>
1

>  <Amines 2>
0

>  <Aromatic Nitrogens 2>
0

>  <Basic Nitrogens>
0

$$$$
trans-Tetramethrin
Actelion Java MolfileCreator 2.0

  0  0  0  0  0  0              0 V3000
M  V30 BEGIN CTAB
M  V30 COUNTS 24 26 0 0 0
M  V30 BEGIN ATOM
M  V30 1 O 0.0 0.0 0.0 0
M  V30 2 C -0.319 -1.4535 0.0 0
M  V30 3 N -1.7017 -2.0562 0.0 0
M  V30 4 C 0.6736 -2.5526 0.0 0
M  V30 5 C -1.5599 -3.5334 0.0 0
M  V30 6 C -3.0135 -1.2999 0.0 0
M  V30 7 C -0.0827 -3.8407 0.0 0
M  V30 8 C 2.1626 -2.5407 0.0 0
M  V30 9 O -2.6826 -4.5261 0.0 0
M  V30 10 O -4.3252 -2.0444 0.0 0
M  V30 11 C 0.6617 -5.1288 0.0 0
M  V30 12 C 2.9071 -3.8289 0.0 0
M  V30 13 C -5.637 -1.2881 0.0 0
M  V30 14 C 2.1508 -5.117 0.0 0
M  V30 15 O -5.6488 0.2245 0.0 0
M  V30 16 C -6.9487 -2.0326 0.0 0 CFG=1
M  V30 17 C -8.4614 -2.0208 0.0 0
M  V30 18 C -7.7051 -3.3207 0.0 0 CFG=2
M  V30 19 C -9.2177 -0.709 0.0 0
M  V30 20 C -9.974 -2.009 0.0 0
M  V30 21 C -7.7169 -4.8097 0.0 0
M  V30 22 C -9.0286 -5.5424 0.0 0
M  V30 23 C -10.3404 -4.7861 0.0 0
M  V30 24 C -9.0405 -7.0315 0.0 0
M  V30 END ATOM
M  V30 BEGIN BOND
M  V30 1 2 1 2
M  V30 2 1 2 3
M  V30 3 1 2 4
M  V30 4 1 3 5
M  V30 5 1 3 6
M  V30 6 2 4 7
M  V30 7 1 4 8
M  V30 8 2 5 9
M  V30 9 1 6 10
M  V30 10 1 7 11
M  V30 11 1 8 12
M  V30 12 1 10 13
M  V30 13 1 11 14
M  V30 14 2 13 15
M  V30 15 1 16 13 CFG=3
M  V30 16 1 16 17
M  V30 17 1 16 18
M  V30 18 1 17 19
M  V30 19 1 17 20
M  V30 20 1 18 21 CFG=1
M  V30 21 2 21 22
M  V30 22 1 22 23
M  V30 23 1 22 24
M  V30 24 1 5 7
M  V30 25 1 12 14
M  V30 26 1 17 18
M  V30 END BOND
M  V30 BEGIN COLLECTION
M  V30 MDLV30/STEABS ATOMS=(2 16 18)
M  V30 END COLLECTION
M  V30 END CTAB
M  END
>  <Molecule Name>
trans-Tetramethrin

>  <Order (spectra)>
77

>  <NAME>
trans-Tetramethrin

>  <Molecular Formula>
C19H25NO4

>  <Monoisotopic Mass>
331.178359

>  <SMILES>
CC(C)=C[C@@H]1[C@@H](C(=O)OCN2C(=O)C3=C(CCCC3)C2=O)C1(C)C

>  <InChI>
InChI=1S/C19H25NO4/c1-11(2)9-14-15(19(14,3)4)18(23)24-10-20-16(21)12-7-5-6-8-13(12)17(20)22/h9,14-15H,5-8,10H2,1-4H3/t14-,15-/m0/s1

>  <InChIKey>
CXBMCYHAMVGWJQ-CABCVRRESA-N

>  <Kingdom>
Organic compounds

>  <Superclass>
Organoheterocyclic compounds

>  <Class>
Isoindoles and derivatives

>  <Subclass>
Isoindolines

>  <Parent Level 1>
Isoindolones

>  <Parent Level 2>


>  <Parent Level 3>


>  <cLogP>
2.9536

>  <cLogS>
-3.284

>  <Druglikeness>
-2.6054

>  <NP-class probability>
0.53

>  <SmilesFragFp 3>


>  <MS_READY_SMILES>
CC(C)=CC1C(C(=O)OCN2C(=O)C3=C(CCCC3)C2=O)C1(C)C

>  <MS_READY_InChI>
InChI=1S/C19H25NO4/c1-11(2)9-14-15(19(14,3)4)18(23)24-10-20-16(21)12-7-5-6-8-13(12)17(20)22/h9,14-15H,5-8,10H2,1-4H3

>  <QSAR_READY_SMILES>
CC(C)=CC1C(C(=O)OCN2C(=O)C3=C(CCCC3)C2=O)C1(C)C

>  <QSAR_READY_InChI>
InChI=1S/C19H25NO4/c1-11(2)9-14-15(19(14,3)4)18(23)24-10-20-16(21)12-7-5-6-8-13(12)17(20)22/h9,14-15H,5-8,10H2,1-4H3

>  <DTXSID>
DTXSID4058289

>  <DTXCID>
DTXCID1032274

>  <CASRN>
1166-46-7

>  <EXPOCAST_MEDIAN_EXPOSURE_PREDICTION_MG/KG-BW/DAY>
2.25E-07

>  <BIOCONCENTRATION_FACTOR_TEST_PRED>
164.816

>  <BOILING_POINT_DEGC_TEST_PRED>
393.976

>  <48HR_DAPHNIA_LC50_MOL/L_TEST_PRED>
2.62E-07

>  <DENSITY_G/CM^3_TEST_PRED>
1.193

>  <DEVTOX_TEST_PRED>
0.92

>  <96HR_FATHEAD_MINNOW_MOL/L_TEST_PRED>
2.20E-07

>  <FLASH_POINT_DEGC_TEST_PRED>
219.765

>  <MELTING_POINT_DEGC_TEST_PRED>
85.214

>  <AMES_MUTAGENICITY_TEST_PRED>
0.76

>  <ORAL_RAT_LD50_MOL/KG_TEST_PRED>
0.0150314

>  <SURFACE_TENSION_DYN/CM_TEST_PRED>
-

>  <THERMAL_CONDUCTIVITY_MW/(M*K)_TEST_PRED>
-

>  <TETRAHYMENA_PYRIFORMIS_IGC50_MOL/L_TEST_PRED>
-

>  <VISCOSITY_CP_CP_TEST_PRED>
-

>  <VAPOR_PRESSURE_MMHG_TEST_PRED>
4.23E-09

>  <WATER_SOLUBILITY_MOL/L_TEST_PRED>
4.71E-06

>  <ATMOSPHERIC_HYDROXYLATION_RATE_(AOH)_CM3/MOLECULE*SEC_OPERA_PRED>
1.46E-10

>  <BIOCONCENTRATION_FACTOR_OPERA_PRED>
8.81393

>  <BIODEGRADATION_HALF_LIFE_DAYS_DAYS_OPERA_PRED>
3.35399

>  <BOILING_POINT_DEGC_OPERA_PRED>
339.127

>  <HENRYS_LAW_ATM-M3/MOLE_OPERA_PRED>
9.76E-06

>  <OPERA_KM_DAYS_OPERA_PRED>
1.52109

>  <OCTANOL_AIR_PARTITION_COEFF_LOGKOA_OPERA_PRED>
11.5741

>  <SOIL_ADSORPTION_COEFFICIENT_KOC_L/KG_OPERA_PRED>
1791.04

>  <OCTANOL_WATER_PARTITION_LOGP_OPERA_PRED>
4.72729

>  <MELTING_POINT_DEGC_OPERA_PRED>
69.0098

>  <VAPOR_PRESSURE_MMHG_OPERA_PRED>
7.03E-06

>  <WATER_SOLUBILITY_MOL/L_OPERA_PRED>
6.49E-06

>  <Shape Index>
0.54167

>  <Molecular Flexibility>
0.4208

>  <Molecular Complexity>
0.84127

>  <Electronegative Atoms>
5

>  <Stereo Centers>
2

>  <Rotatable Bonds>
5

>  <Rings Closures>
3

>  <Aromatic Rings>
0

>  <Aromatic Atoms>
0

>  <Amides>
1

>  <Amines>
0

>  <Aromatic Nitrogens>
0

>  <Shape Index 2>
0.54167

>  <Molecular Flexibility 2>
0.4208

>  <Molecular Complexity 2>
0.84127

>  <Non-C/H Atoms>
5

>  <Electronegative Atoms 2>
5

>  <Stereo Centers 2>
2

>  <Rotatable Bonds 2>
5

>  <Rings Closures 2>
3

>  <Aromatic Rings 2>
0

>  <Aromatic Atoms 2>
0

>  <sp3-Atoms>
13

>  <Amides 2>
1

>  <Amines 2>
0

>  <Aromatic Nitrogens 2>
0

>  <Basic Nitrogens>
0

$$$$
Acenaphthene
Actelion Java MolfileCreator 2.0

  0  0  0  0  0  0              0 V3000
M  V30 BEGIN CTAB
M  V30 COUNTS 12 14 0 0 0
M  V30 BEGIN ATOM
M  V30 1 C 0.0 0.0 0.0 0
M  V30 2 C 1.2895 -0.7421 0.0 0
M  V30 3 C -1.3139 -0.7421 0.0 0
M  V30 4 C 0.2189 1.545 0.0 0
M  V30 5 C 1.2774 -2.2263 0.0 0
M  V30 6 C 2.7008 -0.2676 0.0 0
M  V30 7 C -1.326 -2.2263 0.0 0
M  V30 8 C 1.5815 2.1655 0.0 0
M  V30 9 C -0.0364 -2.9684 0.0 0
M  V30 10 C 2.6886 -2.6764 0.0 0
M  V30 11 C 2.7738 1.2895 0.0 0
M  V30 12 C 3.5646 -1.472 0.0 0
M  V30 END ATOM
M  V30 BEGIN BOND
M  V30 1 1 1 2
M  V30 2 1 1 3
M  V30 3 2 1 4
M  V30 4 1 2 5
M  V30 5 2 2 6
M  V30 6 2 3 7
M  V30 7 1 4 8
M  V30 8 2 5 9
M  V30 9 1 5 10
M  V30 10 1 6 11
M  V30 11 1 6 12
M  V30 12 1 7 9
M  V30 13 2 8 11
M  V30 14 1 10 12
M  V30 END BOND
M  V30 END CTAB
M  END
>  <Molecule Name>
Acenaphthene

>  <Order (spectra)>
7

>  <NAME>
Acenaphthene

>  <Molecular Formula>
C12H10

>  <Monoisotopic Mass>
154.07825

>  <SMILES>
C1CC2=C3C1=CC=CC3=CC=C2

>  <InChI>
InChI=1S/C12H10/c1-3-9-4-2-6-11-8-7-10(5-1)12(9)11/h1-6H,7-8H2

>  <InChIKey>
CWRYPZZKDGJXCA-UHFFFAOYSA-N

>  <Kingdom>
Organic compounds

>  <Superclass>
Benzenoids

>  <Class>
Naphthalenes

>  <Subclass>


>  <Parent Level 1>
Naphthalenes

>  <Parent Level 2>


>  <Parent Level 3>


>  <cLogP>
3.3268

>  <cLogS>
-3.774

>  <Druglikeness>
-3.4202

>  <NP-class probability>
0.9

>  <SmilesFragFp 3>


>  <MS_READY_SMILES>
C1CC2=C3C1=CC=CC3=CC=C2

>  <MS_READY_InChI>
InChI=1S/C12H10/c1-3-9-4-2-6-11-8-7-10(5-1)12(9)11/h1-6H,7-8H2

>  <QSAR_READY_SMILES>
C1CC2=C3C1=CC=CC3=CC=C2

>  <QSAR_READY_InChI>
InChI=1S/C12H10/c1-3-9-4-2-6-11-8-7-10(5-1)12(9)11/h1-6H,7-8H2

>  <DTXSID>
DTXSID3021774

>  <DTXCID>
DTXCID201774

>  <CASRN>
83-32-9

>  <EXPOCAST_MEDIAN_EXPOSURE_PREDICTION_MG/KG-BW/DAY>
1.46E-05

>  <BIOCONCENTRATION_FACTOR_TEST_PRED>
366.438

>  <BOILING_POINT_DEGC_TEST_PRED>
290.519

>  <48HR_DAPHNIA_LC50_MOL/L_TEST_PRED>
1.52E-05

>  <DENSITY_G/CM^3_TEST_PRED>
1.11

>  <DEVTOX_TEST_PRED>
0.578

>  <96HR_FATHEAD_MINNOW_MOL/L_TEST_PRED>
1.11E-05

>  <FLASH_POINT_DEGC_TEST_PRED>
129.066

>  <MELTING_POINT_DEGC_TEST_PRED>
79.597

>  <AMES_MUTAGENICITY_TEST_PRED>
0.399

>  <ORAL_RAT_LD50_MOL/KG_TEST_PRED>
0.009977

>  <SURFACE_TENSION_DYN/CM_TEST_PRED>
39.758

>  <THERMAL_CONDUCTIVITY_MW/(M*K)_TEST_PRED>
125.792

>  <TETRAHYMENA_PYRIFORMIS_IGC50_MOL/L_TEST_PRED>
0.000120781

>  <VISCOSITY_CP_CP_TEST_PRED>
5.40754

>  <VAPOR_PRESSURE_MMHG_TEST_PRED>
0.00145881

>  <WATER_SOLUBILITY_MOL/L_TEST_PRED>
3.37E-05

>  <ATMOSPHERIC_HYDROXYLATION_RATE_(AOH)_CM3/MOLECULE*SEC_OPERA_PRED>
5.78E-11

>  <BIOCONCENTRATION_FACTOR_OPERA_PRED>
755.891

>  <BIODEGRADATION_HALF_LIFE_DAYS_DAYS_OPERA_PRED>
38.9348

>  <BOILING_POINT_DEGC_OPERA_PRED>
278.932

>  <HENRYS_LAW_ATM-M3/MOLE_OPERA_PRED>
0.000184171

>  <OPERA_KM_DAYS_OPERA_PRED>
3.19043

>  <OCTANOL_AIR_PARTITION_COEFF_LOGKOA_OPERA_PRED>
6.32789

>  <SOIL_ADSORPTION_COEFFICIENT_KOC_L/KG_OPERA_PRED>
3896.37

>  <OCTANOL_WATER_PARTITION_LOGP_OPERA_PRED>
3.9209

>  <MELTING_POINT_DEGC_OPERA_PRED>
93.2455

>  <VAPOR_PRESSURE_MMHG_OPERA_PRED>
0.00214836

>  <WATER_SOLUBILITY_MOL/L_OPERA_PRED>
3.66E-05

>  <Shape Index>
0.5

>  <Molecular Flexibility>
0

>  <Molecular Complexity>
0.63799

>  <Electronegative Atoms>
0

>  <Stereo Centers>
0

>  <Rotatable Bonds>
0

>  <Rings Closures>
3

>  <Aromatic Rings>
2

>  <Aromatic Atoms>
10

>  <Amides>
0

>  <Amines>
0

>  <Aromatic Nitrogens>
0

>  <Shape Index 2>
0.5

>  <Molecular Flexibility 2>
0

>  <Molecular Complexity 2>
0.63799

>  <Non-C/H Atoms>
0

>  <Electronegative Atoms 2>
0

>  <Stereo Centers 2>
0

>  <Rotatable Bonds 2>
0

>  <Rings Closures 2>
3

>  <Aromatic Rings 2>
2

>  <Aromatic Atoms 2>
10

>  <sp3-Atoms>
2

>  <Amides 2>
0

>  <Amines 2>
0

>  <Aromatic Nitrogens 2>
0

>  <Basic Nitrogens>
0

$$$$
Fluoranthene
Actelion Java MolfileCreator 2.0

  0  0  0  0  0  0              0 V3000
M  V30 BEGIN CTAB
M  V30 COUNTS 16 19 0 0 0
M  V30 BEGIN ATOM
M  V30 1 C 0.0 0.0 0.0 0
M  V30 2 C 1.292 -0.7435 0.0 0
M  V30 3 C -1.3163 -0.7435 0.0 0
M  V30 4 C 0.2193 1.5479 0.0 0
M  V30 5 C 1.2798 -2.2305 0.0 0
M  V30 6 C 2.7058 -0.2681 0.0 0
M  V30 7 C -1.3285 -2.2305 0.0 0
M  V30 8 C 1.5845 2.1695 0.0 0
M  V30 9 C 2.6937 -2.6815 0.0 0
M  V30 10 C -0.0365 -2.974 0.0 0
M  V30 11 C 3.5712 -1.4748 0.0 0
M  V30 12 C 2.779 1.292 0.0 0
M  V30 13 C 3.2909 -4.0466 0.0 0
M  V30 14 C 5.0583 -1.621 0.0 0
M  V30 15 C 4.7779 -4.1929 0.0 0
M  V30 16 C 5.6555 -2.9862 0.0 0
M  V30 END ATOM
M  V30 BEGIN BOND
M  V30 1 1 1 2
M  V30 2 1 1 3
M  V30 3 2 1 4
M  V30 4 1 2 5
M  V30 5 2 2 6
M  V30 6 2 3 7
M  V30 7 1 4 8
M  V30 8 1 5 9
M  V30 9 2 5 10
M  V30 10 1 6 11
M  V30 11 1 6 12
M  V30 12 1 9 13
M  V30 13 1 11 14
M  V30 14 2 13 15
M  V30 15 2 14 16
M  V30 16 1 7 10
M  V30 17 2 8 12
M  V30 18 2 9 11
M  V30 19 1 15 16
M  V30 END BOND
M  V30 END CTAB
M  END
>  <Molecule Name>
Fluoranthene

>  <Order (spectra)>
8

>  <NAME>
Fluoranthene

>  <Molecular Formula>
C16H10

>  <Monoisotopic Mass>
202.07825

>  <SMILES>
C1=CC2=C(C=C1)C1=C3C2=CC=CC3=CC=C1

>  <InChI>
InChI=1S/C16H10/c1-2-8-13-12(7-1)14-9-3-5-11-6-4-10-15(13)16(11)14/h1-10H

>  <InChIKey>
GVEPBJHOBDJJJI-UHFFFAOYSA-N

>  <Kingdom>
Organic compounds

>  <Superclass>
Benzenoids

>  <Class>
Naphthalenes

>  <Subclass>


>  <Parent Level 1>
Naphthalenes

>  <Parent Level 2>


>  <Parent Level 3>


>  <cLogP>
4.5128

>  <cLogS>
-6.308

>  <Druglikeness>
-2.1841

>  <NP-class probability>
1

>  <SmilesFragFp 3>


>  <MS_READY_SMILES>
C1=CC2=C(C=C1)C1=C3C2=CC=CC3=CC=C1

>  <MS_READY_InChI>
InChI=1S/C16H10/c1-2-8-13-12(7-1)14-9-3-5-11-6-4-10-15(13)16(11)14/h1-10H

>  <QSAR_READY_SMILES>
C1=CC2=C(C=C1)C1=C3C2=CC=CC3=CC=C1

>  <QSAR_READY_InChI>
InChI=1S/C16H10/c1-2-8-13-12(7-1)14-9-3-5-11-6-4-10-15(13)16(11)14/h1-10H

>  <DTXSID>
DTXSID3024104

>  <DTXCID>
DTXCID204104

>  <CASRN>
206-44-0

>  <EXPOCAST_MEDIAN_EXPOSURE_PREDICTION_MG/KG-BW/DAY>
1.45E-06

>  <BIOCONCENTRATION_FACTOR_TEST_PRED>
480.839

>  <BOILING_POINT_DEGC_TEST_PRED>
378.496

>  <48HR_DAPHNIA_LC50_MOL/L_TEST_PRED>
3.51E-06

>  <DENSITY_G/CM^3_TEST_PRED>
1.243

>  <DEVTOX_TEST_PRED>
0.74

>  <96HR_FATHEAD_MINNOW_MOL/L_TEST_PRED>
1.19E-06

>  <FLASH_POINT_DEGC_TEST_PRED>
189.415

>  <MELTING_POINT_DEGC_TEST_PRED>
142.885

>  <AMES_MUTAGENICITY_TEST_PRED>
0.836

>  <ORAL_RAT_LD50_MOL/KG_TEST_PRED>
0.00490908

>  <SURFACE_TENSION_DYN/CM_TEST_PRED>
-

>  <THERMAL_CONDUCTIVITY_MW/(M*K)_TEST_PRED>
125.925

>  <TETRAHYMENA_PYRIFORMIS_IGC50_MOL/L_TEST_PRED>
2.30E-05

>  <VISCOSITY_CP_CP_TEST_PRED>
-

>  <VAPOR_PRESSURE_MMHG_TEST_PRED>
3.71E-07

>  <WATER_SOLUBILITY_MOL/L_TEST_PRED>
3.18E-07

>  <ATMOSPHERIC_HYDROXYLATION_RATE_(AOH)_CM3/MOLECULE*SEC_OPERA_PRED>
4.98E-11

>  <BIOCONCENTRATION_FACTOR_OPERA_PRED>
3528.4

>  <BIODEGRADATION_HALF_LIFE_DAYS_DAYS_OPERA_PRED>
147.199

>  <BOILING_POINT_DEGC_OPERA_PRED>
393.972

>  <HENRYS_LAW_ATM-M3/MOLE_OPERA_PRED>
0.000008917

>  <OPERA_KM_DAYS_OPERA_PRED>
0.957691

>  <OCTANOL_AIR_PARTITION_COEFF_LOGKOA_OPERA_PRED>
8.855

>  <SOIL_ADSORPTION_COEFFICIENT_KOC_L/KG_OPERA_PRED>
63177.5

>  <OCTANOL_WATER_PARTITION_LOGP_OPERA_PRED>
5.16033

>  <MELTING_POINT_DEGC_OPERA_PRED>
108.056

>  <VAPOR_PRESSURE_MMHG_OPERA_PRED>
9.08E-06

>  <WATER_SOLUBILITY_MOL/L_OPERA_PRED>
1.13E-06

>  <Shape Index>
0.4375

>  <Molecular Flexibility>
0

>  <Molecular Complexity>
0.78055

>  <Electronegative Atoms>
0

>  <Stereo Centers>
0

>  <Rotatable Bonds>
0

>  <Rings Closures>
4

>  <Aromatic Rings>
3

>  <Aromatic Atoms>
16

>  <Amides>
0

>  <Amines>
0

>  <Aromatic Nitrogens>
0

>  <Shape Index 2>
0.4375

>  <Molecular Flexibility 2>
0

>  <Molecular Complexity 2>
0.78055

>  <Non-C/H Atoms>
0

>  <Electronegative Atoms 2>
0

>  <Stereo Centers 2>
0

>  <Rotatable Bonds 2>
0

>  <Rings Closures 2>
4

>  <Aromatic Rings 2>
3

>  <Aromatic Atoms 2>
16

>  <sp3-Atoms>
0

>  <Amides 2>
0

>  <Amines 2>
0

>  <Aromatic Nitrogens 2>
0

>  <Basic Nitrogens>
0

$$$$
Benzo[b]naphtho[2,1-d]thiophene
Actelion Java MolfileCreator 2.0

  0  0  0  0  0  0              0 V3000
M  V30 BEGIN CTAB
M  V30 COUNTS 17 20 0 0 0
M  V30 BEGIN ATOM
M  V30 1 S 0.0 0.0 0.0 0
M  V30 2 C -0.0118 -1.4939 0.0 0
M  V30 3 C 1.4227 0.4742 0.0 0
M  V30 4 C -1.1382 -2.4898 0.0 0
M  V30 5 C 1.4109 -1.9444 0.0 0
M  V30 6 C 2.3001 -0.735 0.0 0
M  V30 7 C 2.0274 1.8614 0.0 0
M  V30 8 C -0.8418 -3.9481 0.0 0
M  V30 9 C -2.5846 -2.0155 0.0 0
M  V30 10 C 1.7073 -3.4027 0.0 0
M  V30 11 C 3.7821 -0.5691 0.0 0
M  V30 12 C 3.5095 2.0274 0.0 0
M  V30 13 C 0.5809 -4.3987 0.0 0
M  V30 14 C -1.9681 -4.9441 0.0 0
M  V30 15 C -3.711 -3.0115 0.0 0
M  V30 16 C 4.3868 0.818 0.0 0
M  V30 17 C -3.4146 -4.4698 0.0 0
M  V30 END ATOM
M  V30 BEGIN BOND
M  V30 1 1 1 2
M  V30 2 1 1 3
M  V30 3 1 2 4
M  V30 4 2 2 5
M  V30 5 2 3 6
M  V30 6 1 3 7
M  V30 7 1 4 8
M  V30 8 2 4 9
M  V30 9 1 5 10
M  V30 10 1 6 11
M  V30 11 2 7 12
M  V30 12 1 8 13
M  V30 13 2 8 14
M  V30 14 1 9 15
M  V30 15 2 11 16
M  V30 16 1 14 17
M  V30 17 1 5 6
M  V30 18 2 10 13
M  V30 19 1 12 16
M  V30 20 2 15 17
M  V30 END BOND
M  V30 END CTAB
M  END
>  <Molecule Name>
Benzo[b]naphtho[2,1-d]thiophene

>  <Order (spectra)>
12

>  <NAME>
Benzo[b]naphtho[2,1-d]thiophene

>  <Molecular Formula>
C16H10S

>  <Monoisotopic Mass>
234.05032

>  <SMILES>
S1C2=C(C=CC=C2)C2=C1C1=CC=CC=C1C=C2

>  <InChI>
InChI=1S/C16H10S/c1-2-6-12-11(5-1)9-10-14-13-7-3-4-8-15(13)17-16(12)14/h1-10H

>  <InChIKey>
YEUHHUCOSQOCIX-UHFFFAOYSA-N

>  <Kingdom>
Organic compounds

>  <Superclass>
Benzenoids

>  <Class>
Naphthalenes

>  <Subclass>
Naphthothiophenes

>  <Parent Level 1>
Naphthothiophenes

>  <Parent Level 2>


>  <Parent Level 3>


>  <cLogP>
4.7476

>  <cLogS>
-5.8

>  <Druglikeness>
-1.2484

>  <NP-class probability>
0.99

>  <SmilesFragFp 3>


>  <MS_READY_SMILES>
S1C2=C(C=CC=C2)C2=C1C1=CC=CC=C1C=C2

>  <MS_READY_InChI>
InChI=1S/C16H10S/c1-2-6-12-11(5-1)9-10-14-13-7-3-4-8-15(13)17-16(12)14/h1-10H

>  <QSAR_READY_SMILES>
S1C2=C(C=CC=C2)C2=C1C1=CC=CC=C1C=C2

>  <QSAR_READY_InChI>
InChI=1S/C16H10S/c1-2-6-12-11(5-1)9-10-14-13-7-3-4-8-15(13)17-16(12)14/h1-10H

>  <DTXSID>
DTXSID8075205

>  <DTXCID>
DTXCID1036961

>  <CASRN>
239-35-0

>  <EXPOCAST_MEDIAN_EXPOSURE_PREDICTION_MG/KG-BW/DAY>
1.89E-06

>  <BIOCONCENTRATION_FACTOR_TEST_PRED>
174.181

>  <BOILING_POINT_DEGC_TEST_PRED>
414.529

>  <48HR_DAPHNIA_LC50_MOL/L_TEST_PRED>
4.28E-06

>  <DENSITY_G/CM^3_TEST_PRED>
1.27

>  <DEVTOX_TEST_PRED>
0.362

>  <96HR_FATHEAD_MINNOW_MOL/L_TEST_PRED>
-

>  <FLASH_POINT_DEGC_TEST_PRED>
173.013

>  <MELTING_POINT_DEGC_TEST_PRED>
156.449

>  <AMES_MUTAGENICITY_TEST_PRED>
0.834

>  <ORAL_RAT_LD50_MOL/KG_TEST_PRED>
0.00647143

>  <SURFACE_TENSION_DYN/CM_TEST_PRED>
-

>  <THERMAL_CONDUCTIVITY_MW/(M*K)_TEST_PRED>
-

>  <TETRAHYMENA_PYRIFORMIS_IGC50_MOL/L_TEST_PRED>
8.38E-06

>  <VISCOSITY_CP_CP_TEST_PRED>
-

>  <VAPOR_PRESSURE_MMHG_TEST_PRED>
1.95E-07

>  <WATER_SOLUBILITY_MOL/L_TEST_PRED>
1.49E-06

>  <ATMOSPHERIC_HYDROXYLATION_RATE_(AOH)_CM3/MOLECULE*SEC_OPERA_PRED>
1.10E-10

>  <BIOCONCENTRATION_FACTOR_OPERA_PRED>
683.621

>  <BIODEGRADATION_HALF_LIFE_DAYS_DAYS_OPERA_PRED>
161.134

>  <BOILING_POINT_DEGC_OPERA_PRED>
393.724

>  <HENRYS_LAW_ATM-M3/MOLE_OPERA_PRED>
1.42E-05

>  <OPERA_KM_DAYS_OPERA_PRED>
2.08745

>  <OCTANOL_AIR_PARTITION_COEFF_LOGKOA_OPERA_PRED>
8.8607

>  <SOIL_ADSORPTION_COEFFICIENT_KOC_L/KG_OPERA_PRED>
116611

>  <OCTANOL_WATER_PARTITION_LOGP_OPERA_PRED>
5.51313

>  <MELTING_POINT_DEGC_OPERA_PRED>
188.829

>  <VAPOR_PRESSURE_MMHG_OPERA_PRED>
1.14E-07

>  <WATER_SOLUBILITY_MOL/L_OPERA_PRED>
6.15E-07

>  <Shape Index>
0.52941

>  <Molecular Flexibility>
0

>  <Molecular Complexity>
0.8003

>  <Electronegative Atoms>
1

>  <Stereo Centers>
0

>  <Rotatable Bonds>
0

>  <Rings Closures>
4

>  <Aromatic Rings>
4

>  <Aromatic Atoms>
17

>  <Amides>
0

>  <Amines>
0

>  <Aromatic Nitrogens>
0

>  <Shape Index 2>
0.52941

>  <Molecular Flexibility 2>
0

>  <Molecular Complexity 2>
0.8003

>  <Non-C/H Atoms>
1

>  <Electronegative Atoms 2>
1

>  <Stereo Centers 2>
0

>  <Rotatable Bonds 2>
0

>  <Rings Closures 2>
4

>  <Aromatic Rings 2>
4

>  <Aromatic Atoms 2>
17

>  <sp3-Atoms>
0

>  <Amides 2>
0

>  <Amines 2>
0

>  <Aromatic Nitrogens 2>
0

>  <Basic Nitrogens>
0

$$$$
Benzo(k)fluoranthene
Actelion Java MolfileCreator 2.0

  0  0  0  0  0  0              0 V3000
M  V30 BEGIN CTAB
M  V30 COUNTS 20 24 0 0 0
M  V30 BEGIN ATOM
M  V30 1 C 0.0 0.0 0.0 0
M  V30 2 C -0.0118 -1.4897 0.0 0
M  V30 3 C 1.2887 0.7567 0.0 0
M  V30 4 C -1.3124 0.7567 0.0 0
M  V30 5 C 1.2769 -2.2346 0.0 0
M  V30 6 C -1.3242 -2.2346 0.0 0
M  V30 7 C 2.5775 0.0236 0.0 0
M  V30 8 C -2.6248 0.0236 0.0 0
M  V30 9 C 2.5657 -1.4779 0.0 0
M  V30 10 C -2.6366 -1.4779 0.0 0
M  V30 11 C 3.9963 0.4965 0.0 0
M  V30 12 C 3.9845 -1.9272 0.0 0
M  V30 13 C 4.8713 -0.7094 0.0 0
M  V30 14 C 4.824 1.809 0.0 0
M  V30 15 C 4.5875 -3.2869 0.0 0
M  V30 16 C 6.3492 -0.8512 0.0 0
M  V30 17 C 6.3137 1.8208 0.0 0
M  V30 18 C 6.0654 -3.4288 0.0 0
M  V30 19 C 7.0468 0.532 0.0 0
M  V30 20 C 6.9522 -2.211 0.0 0
M  V30 END ATOM
M  V30 BEGIN BOND
M  V30 1 1 1 2
M  V30 2 1 1 3
M  V30 3 2 1 4
M  V30 4 1 2 5
M  V30 5 2 2 6
M  V30 6 2 3 7
M  V30 7 1 4 8
M  V30 8 2 5 9
M  V30 9 1 6 10
M  V30 10 1 7 11
M  V30 11 1 9 12
M  V30 12 1 11 13
M  V30 13 2 11 14
M  V30 14 1 12 15
M  V30 15 1 13 16
M  V30 16 1 14 17
M  V30 17 2 15 18
M  V30 18 1 16 19
M  V30 19 2 16 20
M  V30 20 1 7 9
M  V30 21 2 8 10
M  V30 22 2 12 13
M  V30 23 2 17 19
M  V30 24 1 18 20
M  V30 END BOND
M  V30 END CTAB
M  END
>  <Molecule Name>
Benzo(k)fluoranthene

>  <Order (spectra)>
18

>  <NAME>
Benzo(k)fluoranthene

>  <Molecular Formula>
C20H12

>  <Monoisotopic Mass>
252.0939

>  <SMILES>
C1=CC2=CC3=C(C=C2C=C1)C1=C2C3=CC=CC2=CC=C1

>  <InChI>
InChI=1S/C20H12/c1-2-6-15-12-19-17-10-4-8-13-7-3-9-16(20(13)17)18(19)11-14(15)5-1/h1-12H

>  <InChIKey>
HAXBIWFMXWRORI-UHFFFAOYSA-N

>  <Kingdom>
Organic compounds

>  <Superclass>
Benzenoids

>  <Class>
Naphthalenes

>  <Subclass>


>  <Parent Level 1>
Naphthalenes

>  <Parent Level 2>


>  <Parent Level 3>


>  <cLogP>
5.7072

>  <cLogS>
-7.914

>  <Druglikeness>
-2.1841

>  <NP-class probability>
1

>  <SmilesFragFp 3>


>  <MS_READY_SMILES>
C1=CC2=CC3=C(C=C2C=C1)C1=C2C3=CC=CC2=CC=C1

>  <MS_READY_InChI>
InChI=1S/C20H12/c1-2-6-15-12-19-17-10-4-8-13-7-3-9-16(20(13)17)18(19)11-14(15)5-1/h1-12H

>  <QSAR_READY_SMILES>
C1=CC2=CC3=C(C=C2C=C1)C1=C2C3=CC=CC2=CC=C1

>  <QSAR_READY_InChI>
InChI=1S/C20H12/c1-2-6-15-12-19-17-10-4-8-13-7-3-9-16(20(13)17)18(19)11-14(15)5-1/h1-12H

>  <DTXSID>
DTXSID0023909

>  <DTXCID>
DTXCID703909

>  <CASRN>
207-08-9

>  <EXPOCAST_MEDIAN_EXPOSURE_PREDICTION_MG/KG-BW/DAY>
5.37E-06

>  <BIOCONCENTRATION_FACTOR_TEST_PRED>
484.172

>  <BOILING_POINT_DEGC_TEST_PRED>
488.24

>  <48HR_DAPHNIA_LC50_MOL/L_TEST_PRED>
5.85E-07

>  <DENSITY_G/CM^3_TEST_PRED>
1.278

>  <DEVTOX_TEST_PRED>
0.498

>  <96HR_FATHEAD_MINNOW_MOL/L_TEST_PRED>
2.18E-07

>  <FLASH_POINT_DEGC_TEST_PRED>
207.473

>  <MELTING_POINT_DEGC_TEST_PRED>
203.279

>  <AMES_MUTAGENICITY_TEST_PRED>
1.028

>  <ORAL_RAT_LD50_MOL/KG_TEST_PRED>
-

>  <SURFACE_TENSION_DYN/CM_TEST_PRED>
43.361

>  <THERMAL_CONDUCTIVITY_MW/(M*K)_TEST_PRED>
-

>  <TETRAHYMENA_PYRIFORMIS_IGC50_MOL/L_TEST_PRED>
3.44E-06

>  <VISCOSITY_CP_CP_TEST_PRED>
-

>  <VAPOR_PRESSURE_MMHG_TEST_PRED>
1.84E-08

>  <WATER_SOLUBILITY_MOL/L_TEST_PRED>
7.57E-09

>  <ATMOSPHERIC_HYDROXYLATION_RATE_(AOH)_CM3/MOLECULE*SEC_OPERA_PRED>
2.01E-11

>  <BIOCONCENTRATION_FACTOR_OPERA_PRED>
1272.08

>  <BIODEGRADATION_HALF_LIFE_DAYS_DAYS_OPERA_PRED>
350.547

>  <BOILING_POINT_DEGC_OPERA_PRED>
479.711

>  <HENRYS_LAW_ATM-M3/MOLE_OPERA_PRED>
5.87E-07

>  <OPERA_KM_DAYS_OPERA_PRED>
0.871903

>  <OCTANOL_AIR_PARTITION_COEFF_LOGKOA_OPERA_PRED>
9.384

>  <SOIL_ADSORPTION_COEFFICIENT_KOC_L/KG_OPERA_PRED>
22054.3

>  <OCTANOL_WATER_PARTITION_LOGP_OPERA_PRED>
6.10891

>  <MELTING_POINT_DEGC_OPERA_PRED>
216.788

>  <VAPOR_PRESSURE_MMHG_OPERA_PRED>
9.77E-10

>  <WATER_SOLUBILITY_MOL/L_OPERA_PRED>
3.23E-09

>  <Shape Index>
0.45

>  <Molecular Flexibility>
0

>  <Molecular Complexity>
0.84206

>  <Electronegative Atoms>
0

>  <Stereo Centers>
0

>  <Rotatable Bonds>
0

>  <Rings Closures>
5

>  <Aromatic Rings>
4

>  <Aromatic Atoms>
20

>  <Amides>
0

>  <Amines>
0

>  <Aromatic Nitrogens>
0

>  <Shape Index 2>
0.45

>  <Molecular Flexibility 2>
0

>  <Molecular Complexity 2>
0.84206

>  <Non-C/H Atoms>
0

>  <Electronegative Atoms 2>
0

>  <Stereo Centers 2>
0

>  <Rotatable Bonds 2>
0

>  <Rings Closures 2>
5

>  <Aromatic Rings 2>
4

>  <Aromatic Atoms 2>
20

>  <sp3-Atoms>
0

>  <Amides 2>
0

>  <Amines 2>
0

>  <Aromatic Nitrogens 2>
0

>  <Basic Nitrogens>
0

$$$$
1-Fluronaphthalene
Actelion Java MolfileCreator 2.0

  0  0  0  0  0  0              0 V3000
M  V30 BEGIN CTAB
M  V30 COUNTS 11 12 0 0 0
M  V30 BEGIN ATOM
M  V30 1 F 0.0 0.0 0.0 0
M  V30 2 C -1.3066 -0.7298 0.0 0
M  V30 3 C -2.6133 0.0235 0.0 0
M  V30 4 C -1.3184 -2.213 0.0 0
M  V30 5 C -3.9199 -0.7062 0.0 0
M  V30 6 C -2.625 1.5303 0.0 0
M  V30 7 C -2.625 -2.9429 0.0 0
M  V30 8 C -3.9317 -2.1895 0.0 0
M  V30 9 C -5.2266 0.047 0.0 0
M  V30 10 C -3.9317 2.2836 0.0 0
M  V30 11 C -5.2383 1.5538 0.0 0
M  V30 END ATOM
M  V30 BEGIN BOND
M  V30 1 1 1 2
M  V30 2 1 2 3
M  V30 3 2 2 4
M  V30 4 1 3 5
M  V30 5 2 3 6
M  V30 6 1 4 7
M  V30 7 1 5 8
M  V30 8 2 5 9
M  V30 9 1 6 10
M  V30 10 1 9 11
M  V30 11 2 7 8
M  V30 12 2 10 11
M  V30 END BOND
M  V30 END CTAB
M  END
>  <Molecule Name>
1-Fluronaphthalene

>  <Order (spectra)>
129

>  <NAME>
1-Fluronaphthalene

>  <Molecular Formula>
C10H7F

>  <Monoisotopic Mass>
146.053178

>  <SMILES>
FC1=C2C=CC=CC2=CC=C1

>  <InChI>
InChI=1S/C10H7F/c11-10-7-3-5-8-4-1-2-6-9(8)10/h1-7H

>  <InChIKey>
CWLKTJOTWITYSI-UHFFFAOYSA-N

>  <Kingdom>
Organic compounds

>  <Superclass>
Benzenoids

>  <Class>
Naphthalenes

>  <Subclass>


>  <Parent Level 1>
Naphthalenes

>  <Parent Level 2>


>  <Parent Level 3>


>  <cLogP>
2.9548

>  <cLogS>
-3.536

>  <Druglikeness>
-3.6975

>  <NP-class probability>
-

>  <SmilesFragFp 3>


>  <MS_READY_SMILES>
FC1=C2C=CC=CC2=CC=C1

>  <MS_READY_InChI>
InChI=1S/C10H7F/c11-10-7-3-5-8-4-1-2-6-9(8)10/h1-7H

>  <QSAR_READY_SMILES>
FC1=C2C=CC=CC2=CC=C1

>  <QSAR_READY_InChI>
InChI=1S/C10H7F/c11-10-7-3-5-8-4-1-2-6-9(8)10/h1-7H

>  <DTXSID>
DTXSID7059808

>  <DTXCID>
DTXCID1038454

>  <CASRN>
321-38-0

>  <EXPOCAST_MEDIAN_EXPOSURE_PREDICTION_MG/KG-BW/DAY>
3.02E-06

>  <BIOCONCENTRATION_FACTOR_TEST_PRED>
91.622

>  <BOILING_POINT_DEGC_TEST_PRED>
236.536

>  <48HR_DAPHNIA_LC50_MOL/L_TEST_PRED>
1.89E-05

>  <DENSITY_G/CM^3_TEST_PRED>
1.167

>  <DEVTOX_TEST_PRED>
0.44

>  <96HR_FATHEAD_MINNOW_MOL/L_TEST_PRED>
0.000034914

>  <FLASH_POINT_DEGC_TEST_PRED>
95.58

>  <MELTING_POINT_DEGC_TEST_PRED>
57.711

>  <AMES_MUTAGENICITY_TEST_PRED>
0.864

>  <ORAL_RAT_LD50_MOL/KG_TEST_PRED>
-

>  <SURFACE_TENSION_DYN/CM_TEST_PRED>
36.643

>  <THERMAL_CONDUCTIVITY_MW/(M*K)_TEST_PRED>
124.772

>  <TETRAHYMENA_PYRIFORMIS_IGC50_MOL/L_TEST_PRED>
0.00018578

>  <VISCOSITY_CP_CP_TEST_PRED>
3.99945

>  <VAPOR_PRESSURE_MMHG_TEST_PRED>
0.0467735

>  <WATER_SOLUBILITY_MOL/L_TEST_PRED>
0.00149624

>  <ATMOSPHERIC_HYDROXYLATION_RATE_(AOH)_CM3/MOLECULE*SEC_OPERA_PRED>
1.75E-11

>  <BIOCONCENTRATION_FACTOR_OPERA_PRED>
11.5757

>  <BIODEGRADATION_HALF_LIFE_DAYS_DAYS_OPERA_PRED>
3.54545

>  <BOILING_POINT_DEGC_OPERA_PRED>
214.995

>  <HENRYS_LAW_ATM-M3/MOLE_OPERA_PRED>
4.53E-05

>  <OPERA_KM_DAYS_OPERA_PRED>
0.12723

>  <OCTANOL_AIR_PARTITION_COEFF_LOGKOA_OPERA_PRED>
4.43403

>  <SOIL_ADSORPTION_COEFFICIENT_KOC_L/KG_OPERA_PRED>
1695.2

>  <OCTANOL_WATER_PARTITION_LOGP_OPERA_PRED>
3.45075

>  <MELTING_POINT_DEGC_OPERA_PRED>
-8.73288

>  <VAPOR_PRESSURE_MMHG_OPERA_PRED>
0.0584856

>  <WATER_SOLUBILITY_MOL/L_OPERA_PRED>
0.000355276

>  <Shape Index>
0.54545

>  <Molecular Flexibility>
0

>  <Molecular Complexity>
0.63811

>  <Electronegative Atoms>
1

>  <Stereo Centers>
0

>  <Rotatable Bonds>
0

>  <Rings Closures>
2

>  <Aromatic Rings>
2

>  <Aromatic Atoms>
10

>  <Amides>
0

>  <Amines>
0

>  <Aromatic Nitrogens>
0

>  <Shape Index 2>
0.54545

>  <Molecular Flexibility 2>
0

>  <Molecular Complexity 2>
0.63811

>  <Non-C/H Atoms>
1

>  <Electronegative Atoms 2>
1

>  <Stereo Centers 2>
0

>  <Rotatable Bonds 2>
0

>  <Rings Closures 2>
2

>  <Aromatic Rings 2>
2

>  <Aromatic Atoms 2>
10

>  <sp3-Atoms>
0

>  <Amides 2>
0

>  <Amines 2>
0

>  <Aromatic Nitrogens 2>
0

>  <Basic Nitrogens>
0

$$$$
1-Nitronaphthalene
Actelion Java MolfileCreator 2.0

  0  0  0  0  0  0              0 V3000
M  V30 BEGIN CTAB
M  V30 COUNTS 13 14 0 0 0
M  V30 BEGIN ATOM
M  V30 1 O 0.0 0.0 0.0 0
M  V30 2 N -1.3057 0.7528 0.0 0 CHG=1
M  V30 3 O -1.3174 2.2585 0.0 0 CHG=-1
M  V30 4 C -2.6114 0.0235 0.0 0
M  V30 5 C -3.9171 0.7763 0.0 0
M  V30 6 C -2.6231 -1.4586 0.0 0
M  V30 7 C -5.2228 0.047 0.0 0
M  V30 8 C -3.9289 2.282 0.0 0
M  V30 9 C -3.9289 -2.1879 0.0 0
M  V30 10 C -5.2346 -1.4351 0.0 0
M  V30 11 C -6.5285 0.7998 0.0 0
M  V30 12 C -5.2346 3.0349 0.0 0
M  V30 13 C -6.5403 2.3055 0.0 0
M  V30 END ATOM
M  V30 BEGIN BOND
M  V30 1 2 1 2
M  V30 2 1 2 3
M  V30 3 1 2 4
M  V30 4 1 4 5
M  V30 5 2 4 6
M  V30 6 1 5 7
M  V30 7 2 5 8
M  V30 8 1 6 9
M  V30 9 1 7 10
M  V30 10 2 7 11
M  V30 11 1 8 12
M  V30 12 1 11 13
M  V30 13 2 9 10
M  V30 14 2 12 13
M  V30 END BOND
M  V30 END CTAB
M  END
>  <Molecule Name>
1-Nitronaphthalene

>  <Order (spectra)>
187

>  <NAME>
1-Nitronaphthalene

>  <Molecular Formula>
C10H7NO2

>  <Monoisotopic Mass>
173.047679

>  <SMILES>
[O-][N+](=O)C1=C2C=CC=CC2=CC=C1

>  <InChI>
InChI=1S/C10H7NO2/c12-11(13)10-7-3-5-8-4-1-2-6-9(8)10/h1-7H

>  <InChIKey>
RJKGJBPXVHTNJL-UHFFFAOYSA-N

>  <Kingdom>
Organic compounds

>  <Superclass>
Benzenoids

>  <Class>
Naphthalenes

>  <Subclass>
Nitronaphthalenes

>  <Parent Level 1>
Nitronaphthalenes

>  <Parent Level 2>


>  <Parent Level 3>


>  <cLogP>
1.9324

>  <cLogS>
-3.682

>  <Druglikeness>
-7.74

>  <NP-class probability>
0.41

>  <SmilesFragFp 3>


>  <MS_READY_SMILES>
[O-][N+](=O)C1=C2C=CC=CC2=CC=C1

>  <MS_READY_InChI>
InChI=1S/C10H7NO2/c12-11(13)10-7-3-5-8-4-1-2-6-9(8)10/h1-7H

>  <QSAR_READY_SMILES>
[O-][N+](=O)C1=C2C=CC=CC2=CC=C1

>  <QSAR_READY_InChI>
InChI=1S/C10H7NO2/c12-11(13)10-7-3-5-8-4-1-2-6-9(8)10/h1-7H

>  <DTXSID>
DTXSID7020978

>  <DTXCID>
DTXCID70978

>  <CASRN>
86-57-7

>  <EXPOCAST_MEDIAN_EXPOSURE_PREDICTION_MG/KG-BW/DAY>
2.61E-05

>  <BIOCONCENTRATION_FACTOR_TEST_PRED>
32.5837

>  <BOILING_POINT_DEGC_TEST_PRED>
299.433

>  <48HR_DAPHNIA_LC50_MOL/L_TEST_PRED>
4.93E-05

>  <DENSITY_G/CM^3_TEST_PRED>
1.282

>  <DEVTOX_TEST_PRED>
0.572

>  <96HR_FATHEAD_MINNOW_MOL/L_TEST_PRED>
2.12E-05

>  <FLASH_POINT_DEGC_TEST_PRED>
146.238

>  <MELTING_POINT_DEGC_TEST_PRED>
81.313

>  <AMES_MUTAGENICITY_TEST_PRED>
0.989

>  <ORAL_RAT_LD50_MOL/KG_TEST_PRED>
-

>  <SURFACE_TENSION_DYN/CM_TEST_PRED>
-

>  <THERMAL_CONDUCTIVITY_MW/(M*K)_TEST_PRED>
142.115

>  <TETRAHYMENA_PYRIFORMIS_IGC50_MOL/L_TEST_PRED>
0.00012388

>  <VISCOSITY_CP_CP_TEST_PRED>
7.29458

>  <VAPOR_PRESSURE_MMHG_TEST_PRED>
0.000778037

>  <WATER_SOLUBILITY_MOL/L_TEST_PRED>
0.00041115

>  <ATMOSPHERIC_HYDROXYLATION_RATE_(AOH)_CM3/MOLECULE*SEC_OPERA_PRED>
5.40E-12

>  <BIOCONCENTRATION_FACTOR_OPERA_PRED>
19.5803

>  <BIODEGRADATION_HALF_LIFE_DAYS_DAYS_OPERA_PRED>
5.20684

>  <BOILING_POINT_DEGC_OPERA_PRED>
303.858

>  <HENRYS_LAW_ATM-M3/MOLE_OPERA_PRED>
1.76E-06

>  <OPERA_KM_DAYS_OPERA_PRED>
0.139199

>  <OCTANOL_AIR_PARTITION_COEFF_LOGKOA_OPERA_PRED>
5.77422

>  <SOIL_ADSORPTION_COEFFICIENT_KOC_L/KG_OPERA_PRED>
499.054

>  <OCTANOL_WATER_PARTITION_LOGP_OPERA_PRED>
3.17029

>  <MELTING_POINT_DEGC_OPERA_PRED>
61.0946

>  <VAPOR_PRESSURE_MMHG_OPERA_PRED>
0.000475936

>  <WATER_SOLUBILITY_MOL/L_OPERA_PRED>
9.32E-05

>  <Shape Index>
0.53846

>  <Molecular Flexibility>
0.28243

>  <Molecular Complexity>
0.63799

>  <Electronegative Atoms>
3

>  <Stereo Centers>
0

>  <Rotatable Bonds>
1

>  <Rings Closures>
2

>  <Aromatic Rings>
2

>  <Aromatic Atoms>
10

>  <Amides>
0

>  <Amines>
0

>  <Aromatic Nitrogens>
0

>  <Shape Index 2>
0.53846

>  <Molecular Flexibility 2>
0.28243

>  <Molecular Complexity 2>
0.63799

>  <Non-C/H Atoms>
3

>  <Electronegative Atoms 2>
3

>  <Stereo Centers 2>
0

>  <Rotatable Bonds 2>
1

>  <Rings Closures 2>
2

>  <Aromatic Rings 2>
2

>  <Aromatic Atoms 2>
10

>  <sp3-Atoms>
1

>  <Amides 2>
0

>  <Amines 2>
0

>  <Aromatic Nitrogens 2>
0

>  <Basic Nitrogens>
0

$$$$
1,4-Naphthoquinone
Actelion Java MolfileCreator 2.0

  0  0  0  0  0  0              0 V3000
M  V30 BEGIN CTAB
M  V30 COUNTS 12 13 0 0 0
M  V30 BEGIN ATOM
M  V30 1 O 0.0 0.0 0.0 0
M  V30 2 C -1.3068 -0.7299 0.0 0
M  V30 3 C -2.6137 0.0235 0.0 0
M  V30 4 C -1.3186 -2.2134 0.0 0
M  V30 5 C -3.9206 -0.7064 0.0 0
M  V30 6 C -2.6255 1.5305 0.0 0
M  V30 7 C -2.6255 -2.9434 0.0 0
M  V30 8 C -3.9324 -2.1899 0.0 0
M  V30 9 C -5.2275 0.047 0.0 0
M  V30 10 C -3.9324 2.284 0.0 0
M  V30 11 O -5.2392 -2.9198 0.0 0
M  V30 12 C -5.2392 1.5541 0.0 0
M  V30 END ATOM
M  V30 BEGIN BOND
M  V30 1 2 1 2
M  V30 2 1 2 3
M  V30 3 1 2 4
M  V30 4 2 3 5
M  V30 5 1 3 6
M  V30 6 2 4 7
M  V30 7 1 5 8
M  V30 8 1 5 9
M  V30 9 2 6 10
M  V30 10 2 8 11
M  V30 11 2 9 12
M  V30 12 1 7 8
M  V30 13 1 10 12
M  V30 END BOND
M  V30 END CTAB
M  END
>  <Molecule Name>
1,4-Naphthoquinone

>  <Order (spectra)>
189

>  <NAME>
1,4-Naphthoquinone

>  <Molecular Formula>
C10H6O2

>  <Monoisotopic Mass>
158.03678

>  <SMILES>
O=C1C=CC(=O)C2=C1C=CC=C2

>  <InChI>
InChI=1S/C10H6O2/c11-9-5-6-10(12)8-4-2-1-3-7(8)9/h1-6H

>  <InChIKey>
FRASJONUBLZVQX-UHFFFAOYSA-N

>  <Kingdom>
Organic compounds

>  <Superclass>
Benzenoids

>  <Class>
Naphthalenes

>  <Subclass>
Naphthoquinones

>  <Parent Level 1>
Naphthoquinones

>  <Parent Level 2>


>  <Parent Level 3>


>  <cLogP>
1.4394

>  <cLogS>
-2.842

>  <Druglikeness>
0.26454

>  <NP-class probability>
0.89

>  <SmilesFragFp 3>


>  <MS_READY_SMILES>
O=C1C=CC(=O)C2=C1C=CC=C2

>  <MS_READY_InChI>
InChI=1S/C10H6O2/c11-9-5-6-10(12)8-4-2-1-3-7(8)9/h1-6H

>  <QSAR_READY_SMILES>
O=C1C=CC(=O)C2=C1C=CC=C2

>  <QSAR_READY_InChI>
InChI=1S/C10H6O2/c11-9-5-6-10(12)8-4-2-1-3-7(8)9/h1-6H

>  <DTXSID>
DTXSID5040704

>  <DTXCID>
DTXCID3020704

>  <CASRN>
130-15-4

>  <EXPOCAST_MEDIAN_EXPOSURE_PREDICTION_MG/KG-BW/DAY>
3.79E-06

>  <BIOCONCENTRATION_FACTOR_TEST_PRED>
15.3462

>  <BOILING_POINT_DEGC_TEST_PRED>
296.798

>  <48HR_DAPHNIA_LC50_MOL/L_TEST_PRED>
8.51E-05

>  <DENSITY_G/CM^3_TEST_PRED>
1.295

>  <DEVTOX_TEST_PRED>
0.691

>  <96HR_FATHEAD_MINNOW_MOL/L_TEST_PRED>
0.000005188

>  <FLASH_POINT_DEGC_TEST_PRED>
145.42

>  <MELTING_POINT_DEGC_TEST_PRED>
121.244

>  <AMES_MUTAGENICITY_TEST_PRED>
0.744

>  <ORAL_RAT_LD50_MOL/KG_TEST_PRED>
0.00370681

>  <SURFACE_TENSION_DYN/CM_TEST_PRED>
41.181

>  <THERMAL_CONDUCTIVITY_MW/(M*K)_TEST_PRED>
134.739

>  <TETRAHYMENA_PYRIFORMIS_IGC50_MOL/L_TEST_PRED>
1.30E-05

>  <VISCOSITY_CP_CP_TEST_PRED>
4.77529

>  <VAPOR_PRESSURE_MMHG_TEST_PRED>
0.00076913

>  <WATER_SOLUBILITY_MOL/L_TEST_PRED>
0.00114815

>  <ATMOSPHERIC_HYDROXYLATION_RATE_(AOH)_CM3/MOLECULE*SEC_OPERA_PRED>
3.10E-12

>  <BIOCONCENTRATION_FACTOR_OPERA_PRED>
4.33613

>  <BIODEGRADATION_HALF_LIFE_DAYS_DAYS_OPERA_PRED>
4.07269

>  <BOILING_POINT_DEGC_OPERA_PRED>
267.377

>  <HENRYS_LAW_ATM-M3/MOLE_OPERA_PRED>
1.62E-06

>  <OPERA_KM_DAYS_OPERA_PRED>
0.106876

>  <OCTANOL_AIR_PARTITION_COEFF_LOGKOA_OPERA_PRED>
5.72137

>  <SOIL_ADSORPTION_COEFFICIENT_KOC_L/KG_OPERA_PRED>
64.0084

>  <OCTANOL_WATER_PARTITION_LOGP_OPERA_PRED>
1.70784

>  <MELTING_POINT_DEGC_OPERA_PRED>
128.278

>  <VAPOR_PRESSURE_MMHG_OPERA_PRED>
0.000181569

>  <WATER_SOLUBILITY_MOL/L_OPERA_PRED>
0.00270609

>  <Shape Index>
0.5

>  <Molecular Flexibility>
0.13498

>  <Molecular Complexity>
0.75181

>  <Electronegative Atoms>
2

>  <Stereo Centers>
0

>  <Rotatable Bonds>
0

>  <Rings Closures>
2

>  <Aromatic Rings>
1

>  <Aromatic Atoms>
6

>  <Amides>
0

>  <Amines>
0

>  <Aromatic Nitrogens>
0

>  <Shape Index 2>
0.5

>  <Molecular Flexibility 2>
0.13498

>  <Molecular Complexity 2>
0.75181

>  <Non-C/H Atoms>
2

>  <Electronegative Atoms 2>
2

>  <Stereo Centers 2>
0

>  <Rotatable Bonds 2>
0

>  <Rings Closures 2>
2

>  <Aromatic Rings 2>
1

>  <Aromatic Atoms 2>
6

>  <sp3-Atoms>
0

>  <Amides 2>
0

>  <Amines 2>
0

>  <Aromatic Nitrogens 2>
0

>  <Basic Nitrogens>
0

$$$$
2-Methylnaphthalene
Actelion Java MolfileCreator 2.0

  0  0  0  0  0  0              0 V3000
M  V30 BEGIN CTAB
M  V30 COUNTS 11 12 0 0 0
M  V30 BEGIN ATOM
M  V30 1 C 0.0 0.0 0.0 0
M  V30 2 C -0.0117 1.506 0.0 0
M  V30 3 C -1.306 -0.7412 0.0 0
M  V30 4 C 1.2825 -0.7412 0.0 0
M  V30 5 C -1.3178 2.2709 0.0 0
M  V30 6 C 1.2707 2.2709 0.0 0
M  V30 7 C -2.6121 0.0235 0.0 0
M  V30 8 C 2.565 0.0235 0.0 0
M  V30 9 C -2.6239 1.5296 0.0 0
M  V30 10 C 2.5533 1.5296 0.0 0
M  V30 11 C -3.9182 -0.7177 0.0 0
M  V30 END ATOM
M  V30 BEGIN BOND
M  V30 1 1 1 2
M  V30 2 1 1 3
M  V30 3 2 1 4
M  V30 4 1 2 5
M  V30 5 2 2 6
M  V30 6 2 3 7
M  V30 7 1 4 8
M  V30 8 2 5 9
M  V30 9 1 6 10
M  V30 10 1 7 11
M  V30 11 1 7 9
M  V30 12 2 8 10
M  V30 END BOND
M  V30 END CTAB
M  END
>  <Molecule Name>
2-Methylnaphthalene

>  <Order (spectra)>
190

>  <NAME>
2-Methylnaphthalene

>  <Molecular Formula>
C11H10

>  <Monoisotopic Mass>
142.07825

>  <SMILES>
CC1=CC2=CC=CC=C2C=C1

>  <InChI>
InChI=1S/C11H10/c1-9-6-7-10-4-2-3-5-11(10)8-9/h2-8H,1H3

>  <InChIKey>
QIMMUPPBPVKWKM-UHFFFAOYSA-N

>  <Kingdom>
Organic compounds

>  <Superclass>
Benzenoids

>  <Class>
Naphthalenes

>  <Subclass>


>  <Parent Level 1>
Naphthalenes

>  <Parent Level 2>


>  <Parent Level 3>


>  <cLogP>
3.1979

>  <cLogS>
-3.566

>  <Druglikeness>
-2.4599

>  <NP-class probability>
-

>  <SmilesFragFp 3>


>  <MS_READY_SMILES>
CC1=CC2=CC=CC=C2C=C1

>  <MS_READY_InChI>
InChI=1S/C11H10/c1-9-6-7-10-4-2-3-5-11(10)8-9/h2-8H,1H3

>  <QSAR_READY_SMILES>
CC1=CC2=CC=CC=C2C=C1

>  <QSAR_READY_InChI>
InChI=1S/C11H10/c1-9-6-7-10-4-2-3-5-11(10)8-9/h2-8H,1H3

>  <DTXSID>
DTXSID4020878

>  <DTXCID>
DTXCID60878

>  <CASRN>
91-57-6

>  <EXPOCAST_MEDIAN_EXPOSURE_PREDICTION_MG/KG-BW/DAY>
1.20E-04

>  <BIOCONCENTRATION_FACTOR_TEST_PRED>
358.922

>  <BOILING_POINT_DEGC_TEST_PRED>
246.201

>  <48HR_DAPHNIA_LC50_MOL/L_TEST_PRED>
1.63E-05

>  <DENSITY_G/CM^3_TEST_PRED>
1.012

>  <DEVTOX_TEST_PRED>
0.514

>  <96HR_FATHEAD_MINNOW_MOL/L_TEST_PRED>
4.32E-05

>  <FLASH_POINT_DEGC_TEST_PRED>
99.729

>  <MELTING_POINT_DEGC_TEST_PRED>
15.988

>  <AMES_MUTAGENICITY_TEST_PRED>
-

>  <ORAL_RAT_LD50_MOL/KG_TEST_PRED>
0.00944061

>  <SURFACE_TENSION_DYN/CM_TEST_PRED>
37.161

>  <THERMAL_CONDUCTIVITY_MW/(M*K)_TEST_PRED>
125.56

>  <TETRAHYMENA_PYRIFORMIS_IGC50_MOL/L_TEST_PRED>
0.000136458

>  <VISCOSITY_CP_CP_TEST_PRED>
3.71535

>  <VAPOR_PRESSURE_MMHG_TEST_PRED>
0.0272898

>  <WATER_SOLUBILITY_MOL/L_TEST_PRED>
0.00013213

>  <ATMOSPHERIC_HYDROXYLATION_RATE_(AOH)_CM3/MOLECULE*SEC_OPERA_PRED>
5.21E-11

>  <BIOCONCENTRATION_FACTOR_OPERA_PRED>
74.4505

>  <BIODEGRADATION_HALF_LIFE_DAYS_DAYS_OPERA_PRED>
14.0244

>  <BOILING_POINT_DEGC_OPERA_PRED>
241.223

>  <HENRYS_LAW_ATM-M3/MOLE_OPERA_PRED>
0.000518286

>  <OPERA_KM_DAYS_OPERA_PRED>
7.55769

>  <OCTANOL_AIR_PARTITION_COEFF_LOGKOA_OPERA_PRED>
5.82975

>  <SOIL_ADSORPTION_COEFFICIENT_KOC_L/KG_OPERA_PRED>
3960.56

>  <OCTANOL_WATER_PARTITION_LOGP_OPERA_PRED>
3.86167

>  <MELTING_POINT_DEGC_OPERA_PRED>
34.408

>  <VAPOR_PRESSURE_MMHG_OPERA_PRED>
0.0538992

>  <WATER_SOLUBILITY_MOL/L_OPERA_PRED>
0.000172658

>  <Shape Index>
0.63636

>  <Molecular Flexibility>
0

>  <Molecular Complexity>
0.52968

>  <Electronegative Atoms>
0

>  <Stereo Centers>
0

>  <Rotatable Bonds>
0

>  <Rings Closures>
2

>  <Aromatic Rings>
2

>  <Aromatic Atoms>
10

>  <Amides>
0

>  <Amines>
0

>  <Aromatic Nitrogens>
0

>  <Shape Index 2>
0.63636

>  <Molecular Flexibility 2>
0

>  <Molecular Complexity 2>
0.52968

>  <Non-C/H Atoms>
0

>  <Electronegative Atoms 2>
0

>  <Stereo Centers 2>
0

>  <Rotatable Bonds 2>
0

>  <Rings Closures 2>
2

>  <Aromatic Rings 2>
2

>  <Aromatic Atoms 2>
10

>  <sp3-Atoms>
1

>  <Amides 2>
0

>  <Amines 2>
0

>  <Aromatic Nitrogens 2>
0

>  <Basic Nitrogens>
0

$$$$
1-Methylnaphthalene
Actelion Java MolfileCreator 2.0

  0  0  0  0  0  0              0 V3000
M  V30 BEGIN CTAB
M  V30 COUNTS 11 12 0 0 0
M  V30 BEGIN ATOM
M  V30 1 C 0.0 0.0 0.0 0
M  V30 2 C 1.2883 0.7564 0.0 0
M  V30 3 C -1.3119 0.7564 0.0 0
M  V30 4 C -0.0118 -1.4892 0.0 0
M  V30 5 C 1.2765 2.2693 0.0 0
M  V30 6 C 2.5766 0.0118 0.0 0
M  V30 7 C -1.3237 2.2693 0.0 0
M  V30 8 C -2.6239 0.0118 0.0 0
M  V30 9 C 1.2765 -2.2338 0.0 0
M  V30 10 C -0.0354 3.0258 0.0 0
M  V30 11 C 2.5648 -1.4774 0.0 0
M  V30 END ATOM
M  V30 BEGIN BOND
M  V30 1 1 1 2
M  V30 2 1 1 3
M  V30 3 2 1 4
M  V30 4 1 2 5
M  V30 5 2 2 6
M  V30 6 2 3 7
M  V30 7 1 3 8
M  V30 8 1 4 9
M  V30 9 2 5 10
M  V30 10 1 6 11
M  V30 11 1 7 10
M  V30 12 2 9 11
M  V30 END BOND
M  V30 END CTAB
M  END
>  <Molecule Name>
1-Methylnaphthalene

>  <Order (spectra)>
191

>  <NAME>
1-Methylnaphthalene

>  <Molecular Formula>
C11H10

>  <Monoisotopic Mass>
142.07825

>  <SMILES>
CC1=C2C=CC=CC2=CC=C1

>  <InChI>
InChI=1S/C11H10/c1-9-5-4-7-10-6-2-3-8-11(9)10/h2-8H,1H3

>  <InChIKey>
QPUYECUOLPXSFR-UHFFFAOYSA-N

>  <Kingdom>
Organic compounds

>  <Superclass>
Benzenoids

>  <Class>
Naphthalenes

>  <Subclass>


>  <Parent Level 1>
Naphthalenes

>  <Parent Level 2>


>  <Parent Level 3>


>  <cLogP>
3.1979

>  <cLogS>
-3.566

>  <Druglikeness>
-2.4599

>  <NP-class probability>
-

>  <SmilesFragFp 3>


>  <MS_READY_SMILES>
CC1=C2C=CC=CC2=CC=C1

>  <MS_READY_InChI>
InChI=1S/C11H10/c1-9-5-4-7-10-6-2-3-8-11(9)10/h2-8H,1H3

>  <QSAR_READY_SMILES>
CC1=C2C=CC=CC2=CC=C1

>  <QSAR_READY_InChI>
InChI=1S/C11H10/c1-9-5-4-7-10-6-2-3-8-11(9)10/h2-8H,1H3

>  <DTXSID>
DTXSID9020877

>  <DTXCID>
DTXCID30877

>  <CASRN>
90-12-0

>  <EXPOCAST_MEDIAN_EXPOSURE_PREDICTION_MG/KG-BW/DAY>
8.17E-05

>  <BIOCONCENTRATION_FACTOR_TEST_PRED>
275.423

>  <BOILING_POINT_DEGC_TEST_PRED>
250.351

>  <48HR_DAPHNIA_LC50_MOL/L_TEST_PRED>
2.95E-05

>  <DENSITY_G/CM^3_TEST_PRED>
1.013

>  <DEVTOX_TEST_PRED>
0.564

>  <96HR_FATHEAD_MINNOW_MOL/L_TEST_PRED>
4.67E-05

>  <FLASH_POINT_DEGC_TEST_PRED>
100.521

>  <MELTING_POINT_DEGC_TEST_PRED>
28.452

>  <AMES_MUTAGENICITY_TEST_PRED>
-

>  <ORAL_RAT_LD50_MOL/KG_TEST_PRED>
0.00914113

>  <SURFACE_TENSION_DYN/CM_TEST_PRED>
36.94

>  <THERMAL_CONDUCTIVITY_MW/(M*K)_TEST_PRED>
126.246

>  <TETRAHYMENA_PYRIFORMIS_IGC50_MOL/L_TEST_PRED>
0.00012942

>  <VISCOSITY_CP_CP_TEST_PRED>
3.8815

>  <VAPOR_PRESSURE_MMHG_TEST_PRED>
0.0242103

>  <WATER_SOLUBILITY_MOL/L_TEST_PRED>
0.000140281

>  <ATMOSPHERIC_HYDROXYLATION_RATE_(AOH)_CM3/MOLECULE*SEC_OPERA_PRED>
5.30E-11

>  <BIOCONCENTRATION_FACTOR_OPERA_PRED>
54.104

>  <BIODEGRADATION_HALF_LIFE_DAYS_DAYS_OPERA_PRED>
9.1457

>  <BOILING_POINT_DEGC_OPERA_PRED>
244.559

>  <HENRYS_LAW_ATM-M3/MOLE_OPERA_PRED>
0.000515308

>  <OPERA_KM_DAYS_OPERA_PRED>
3.42134

>  <OCTANOL_AIR_PARTITION_COEFF_LOGKOA_OPERA_PRED>
5.00704

>  <SOIL_ADSORPTION_COEFFICIENT_KOC_L/KG_OPERA_PRED>
2291.34

>  <OCTANOL_WATER_PARTITION_LOGP_OPERA_PRED>
3.86776

>  <MELTING_POINT_DEGC_OPERA_PRED>
-29.9648

>  <VAPOR_PRESSURE_MMHG_OPERA_PRED>
0.0667749

>  <WATER_SOLUBILITY_MOL/L_OPERA_PRED>
0.000193739

>  <Shape Index>
0.54545

>  <Molecular Flexibility>
0

>  <Molecular Complexity>
0.55537

>  <Electronegative Atoms>
0

>  <Stereo Centers>
0

>  <Rotatable Bonds>
0

>  <Rings Closures>
2

>  <Aromatic Rings>
2

>  <Aromatic Atoms>
10

>  <Amides>
0

>  <Amines>
0

>  <Aromatic Nitrogens>
0

>  <Shape Index 2>
0.54545

>  <Molecular Flexibility 2>
0

>  <Molecular Complexity 2>
0.55537

>  <Non-C/H Atoms>
0

>  <Electronegative Atoms 2>
0

>  <Stereo Centers 2>
0

>  <Rotatable Bonds 2>
0

>  <Rings Closures 2>
2

>  <Aromatic Rings 2>
2

>  <Aromatic Atoms 2>
10

>  <sp3-Atoms>
1

>  <Amides 2>
0

>  <Amines 2>
0

>  <Aromatic Nitrogens 2>
0

>  <Basic Nitrogens>
0

$$$$
2,6-Dimethylnaphthalene
Actelion Java MolfileCreator 2.0

  0  0  0  0  0  0              0 V3000
M  V30 BEGIN CTAB
M  V30 COUNTS 12 13 0 0 0
M  V30 BEGIN ATOM
M  V30 1 C 0.0 0.0 0.0 0
M  V30 2 C 1.2878 0.7561 0.0 0
M  V30 3 C -1.3114 0.7561 0.0 0
M  V30 4 C -0.0118 -1.4887 0.0 0
M  V30 5 C 1.276 2.2685 0.0 0
M  V30 6 C 2.5757 0.0236 0.0 0
M  V30 7 C -1.3232 2.2685 0.0 0
M  V30 8 C -2.6229 0.0236 0.0 0
M  V30 9 C 1.276 -2.233 0.0 0
M  V30 10 C -0.0354 3.0246 0.0 0
M  V30 11 C 2.5638 -1.465 0.0 0
M  V30 12 C -0.0472 4.537 0.0 0
M  V30 END ATOM
M  V30 BEGIN BOND
M  V30 1 1 1 2
M  V30 2 1 1 3
M  V30 3 2 1 4
M  V30 4 1 2 5
M  V30 5 2 2 6
M  V30 6 2 3 7
M  V30 7 1 3 8
M  V30 8 1 4 9
M  V30 9 2 5 10
M  V30 10 1 6 11
M  V30 11 1 10 12
M  V30 12 1 7 10
M  V30 13 2 9 11
M  V30 END BOND
M  V30 END CTAB
M  END
>  <Molecule Name>
2,6-Dimethylnaphthalene

>  <Order (spectra)>
192

>  <NAME>
2,6-Dimethylnaphthalene

>  <Molecular Formula>
C12H12

>  <Monoisotopic Mass>
156.0939

>  <SMILES>
CC1=CC(C)=C2C=CC=CC2=C1

>  <InChI>
InChI=1S/C12H12/c1-9-7-10(2)12-6-4-3-5-11(12)8-9/h3-8H,1-2H3

>  <InChIKey>
QHJMFSMPSZREIF-UHFFFAOYSA-N

>  <Kingdom>
Organic compounds

>  <Superclass>
Benzenoids

>  <Class>
Naphthalenes

>  <Subclass>


>  <Parent Level 1>
Naphthalenes

>  <Parent Level 2>


>  <Parent Level 3>


>  <cLogP>
3.5418

>  <cLogS>
-3.91

>  <Druglikeness>
-2.4599

>  <NP-class probability>
0.83

>  <SmilesFragFp 3>


>  <MS_READY_SMILES>
CC1=CC(C)=C2C=CC=CC2=C1

>  <MS_READY_InChI>
InChI=1S/C12H12/c1-9-7-10(2)12-6-4-3-5-11(12)8-9/h3-8H,1-2H3

>  <QSAR_READY_SMILES>
CC1=CC(C)=C2C=CC=CC2=C1

>  <QSAR_READY_InChI>
InChI=1S/C12H12/c1-9-7-10(2)12-6-4-3-5-11(12)8-9/h3-8H,1-2H3

>  <DTXSID>
DTXSID9060360

>  <DTXCID>
DTXCID2042226

>  <CASRN>
575-41-7

>  <EXPOCAST_MEDIAN_EXPOSURE_PREDICTION_MG/KG-BW/DAY>
3.38E-06

>  <BIOCONCENTRATION_FACTOR_TEST_PRED>
555.904

>  <BOILING_POINT_DEGC_TEST_PRED>
261.772

>  <48HR_DAPHNIA_LC50_MOL/L_TEST_PRED>
0.000012218

>  <DENSITY_G/CM^3_TEST_PRED>
0.996

>  <DEVTOX_TEST_PRED>
0.52

>  <96HR_FATHEAD_MINNOW_MOL/L_TEST_PRED>
2.64E-05

>  <FLASH_POINT_DEGC_TEST_PRED>
108.916

>  <MELTING_POINT_DEGC_TEST_PRED>
28.276

>  <AMES_MUTAGENICITY_TEST_PRED>
-

>  <ORAL_RAT_LD50_MOL/KG_TEST_PRED>
0.0092683

>  <SURFACE_TENSION_DYN/CM_TEST_PRED>
36.542

>  <THERMAL_CONDUCTIVITY_MW/(M*K)_TEST_PRED>
122.807

>  <TETRAHYMENA_PYRIFORMIS_IGC50_MOL/L_TEST_PRED>
7.03E-05

>  <VISCOSITY_CP_CP_TEST_PRED>
4.73151

>  <VAPOR_PRESSURE_MMHG_TEST_PRED>
0.0113763

>  <WATER_SOLUBILITY_MOL/L_TEST_PRED>
5.89E-05

>  <ATMOSPHERIC_HYDROXYLATION_RATE_(AOH)_CM3/MOLECULE*SEC_OPERA_PRED>
4.79E-11

>  <BIOCONCENTRATION_FACTOR_OPERA_PRED>
468.73

>  <BIODEGRADATION_HALF_LIFE_DAYS_DAYS_OPERA_PRED>
16.6887

>  <BOILING_POINT_DEGC_OPERA_PRED>
265.5

>  <HENRYS_LAW_ATM-M3/MOLE_OPERA_PRED>
0.000596086

>  <OPERA_KM_DAYS_OPERA_PRED>
3.20849

>  <OCTANOL_AIR_PARTITION_COEFF_LOGKOA_OPERA_PRED>
5.96262

>  <SOIL_ADSORPTION_COEFFICIENT_KOC_L/KG_OPERA_PRED>
3248.76

>  <OCTANOL_WATER_PARTITION_LOGP_OPERA_PRED>
4.41945

>  <MELTING_POINT_DEGC_OPERA_PRED>
25.74

>  <VAPOR_PRESSURE_MMHG_OPERA_PRED>
0.0213771

>  <WATER_SOLUBILITY_MOL/L_OPERA_PRED>
4.10E-05

>  <Shape Index>
0.58333

>  <Molecular Flexibility>
0

>  <Molecular Complexity>
0.61059

>  <Electronegative Atoms>
0

>  <Stereo Centers>
0

>  <Rotatable Bonds>
0

>  <Rings Closures>
2

>  <Aromatic Rings>
2

>  <Aromatic Atoms>
10

>  <Amides>
0

>  <Amines>
0

>  <Aromatic Nitrogens>
0

>  <Shape Index 2>
0.58333

>  <Molecular Flexibility 2>
0

>  <Molecular Complexity 2>
0.61059

>  <Non-C/H Atoms>
0

>  <Electronegative Atoms 2>
0

>  <Stereo Centers 2>
0

>  <Rotatable Bonds 2>
0

>  <Rings Closures 2>
2

>  <Aromatic Rings 2>
2

>  <Aromatic Atoms 2>
10

>  <sp3-Atoms>
2

>  <Amides 2>
0

>  <Amines 2>
0

>  <Aromatic Nitrogens 2>
0

>  <Basic Nitrogens>
0

$$$$
1,3-Dimethylnaphthalene
Actelion Java MolfileCreator 2.0

  0  0  0  0  0  0              0 V3000
M  V30 BEGIN CTAB
M  V30 COUNTS 12 13 0 0 0
M  V30 BEGIN ATOM
M  V30 1 C 0.0 0.0 0.0 0
M  V30 2 C 1.2887 0.7566 0.0 0
M  V30 3 C -1.3123 0.7566 0.0 0
M  V30 4 C -0.0118 -1.4897 0.0 0
M  V30 5 C 2.5774 0.0118 0.0 0
M  V30 6 C 1.2769 2.27 0.0 0
M  V30 7 C -1.3241 2.27 0.0 0
M  V30 8 C -2.6247 0.0118 0.0 0
M  V30 9 C 1.2769 -2.2345 0.0 0
M  V30 10 C 2.5656 -1.4778 0.0 0
M  V30 11 C 3.8661 0.7685 0.0 0
M  V30 12 C -0.0354 3.0267 0.0 0
M  V30 END ATOM
M  V30 BEGIN BOND
M  V30 1 1 1 2
M  V30 2 1 1 3
M  V30 3 2 1 4
M  V30 4 2 2 5
M  V30 5 1 2 6
M  V30 6 2 3 7
M  V30 7 1 3 8
M  V30 8 1 4 9
M  V30 9 1 5 10
M  V30 10 1 5 11
M  V30 11 2 6 12
M  V30 12 1 7 12
M  V30 13 2 9 10
M  V30 END BOND
M  V30 END CTAB
M  END
>  <Molecule Name>
1,3-Dimethylnaphthalene

>  <Order (spectra)>
193

>  <NAME>
1,3-Dimethylnaphthalene

>  <Molecular Formula>
C12H12

>  <Monoisotopic Mass>
156.0939

>  <SMILES>
CC1=CC=CC2=C(C)C=CC=C12

>  <InChI>
InChI=1S/C12H12/c1-9-5-3-8-12-10(2)6-4-7-11(9)12/h3-8H,1-2H3

>  <InChIKey>
SDDBCEWUYXVGCQ-UHFFFAOYSA-N

>  <Kingdom>
Organic compounds

>  <Superclass>
Benzenoids

>  <Class>
Naphthalenes

>  <Subclass>


>  <Parent Level 1>
Naphthalenes

>  <Parent Level 2>


>  <Parent Level 3>


>  <cLogP>
3.5418

>  <cLogS>
-3.91

>  <Druglikeness>
-2.4599

>  <NP-class probability>
0.83

>  <SmilesFragFp 3>


>  <MS_READY_SMILES>
CC1=CC=CC2=C(C)C=CC=C12

>  <MS_READY_InChI>
InChI=1S/C12H12/c1-9-5-3-8-12-10(2)6-4-7-11(9)12/h3-8H,1-2H3

>  <QSAR_READY_SMILES>
CC1=CC=CC2=C(C)C=CC=C12

>  <QSAR_READY_InChI>
InChI=1S/C12H12/c1-9-5-3-8-12-10(2)6-4-7-11(9)12/h3-8H,1-2H3

>  <DTXSID>
DTXSID0060351

>  <DTXCID>
DTXCID5042166

>  <CASRN>
571-61-9

>  <EXPOCAST_MEDIAN_EXPOSURE_PREDICTION_MG/KG-BW/DAY>
4.72E-06

>  <BIOCONCENTRATION_FACTOR_TEST_PRED>
388.15

>  <BOILING_POINT_DEGC_TEST_PRED>
264.27

>  <48HR_DAPHNIA_LC50_MOL/L_TEST_PRED>
1.45E-05

>  <DENSITY_G/CM^3_TEST_PRED>
0.996

>  <DEVTOX_TEST_PRED>
0.445

>  <96HR_FATHEAD_MINNOW_MOL/L_TEST_PRED>
2.82E-05

>  <FLASH_POINT_DEGC_TEST_PRED>
110.232

>  <MELTING_POINT_DEGC_TEST_PRED>
56.807

>  <AMES_MUTAGENICITY_TEST_PRED>
-

>  <ORAL_RAT_LD50_MOL/KG_TEST_PRED>
0.0107647

>  <SURFACE_TENSION_DYN/CM_TEST_PRED>
36.591

>  <THERMAL_CONDUCTIVITY_MW/(M*K)_TEST_PRED>
122.76

>  <TETRAHYMENA_PYRIFORMIS_IGC50_MOL/L_TEST_PRED>
7.71E-05

>  <VISCOSITY_CP_CP_TEST_PRED>
4.61318

>  <VAPOR_PRESSURE_MMHG_TEST_PRED>
0.00529663

>  <WATER_SOLUBILITY_MOL/L_TEST_PRED>
5.68E-05

>  <ATMOSPHERIC_HYDROXYLATION_RATE_(AOH)_CM3/MOLECULE*SEC_OPERA_PRED>
4.35E-11

>  <BIOCONCENTRATION_FACTOR_OPERA_PRED>
469.082

>  <BIODEGRADATION_HALF_LIFE_DAYS_DAYS_OPERA_PRED>
15.0908

>  <BOILING_POINT_DEGC_OPERA_PRED>
265.5

>  <HENRYS_LAW_ATM-M3/MOLE_OPERA_PRED>
0.00035601

>  <OPERA_KM_DAYS_OPERA_PRED>
2.28929

>  <OCTANOL_AIR_PARTITION_COEFF_LOGKOA_OPERA_PRED>
5.96262

>  <SOIL_ADSORPTION_COEFFICIENT_KOC_L/KG_OPERA_PRED>
2880.17

>  <OCTANOL_WATER_PARTITION_LOGP_OPERA_PRED>
4.37789

>  <MELTING_POINT_DEGC_OPERA_PRED>
25.74

>  <VAPOR_PRESSURE_MMHG_OPERA_PRED>
0.00500869

>  <WATER_SOLUBILITY_MOL/L_OPERA_PRED>
1.89E-05

>  <Shape Index>
0.5

>  <Molecular Flexibility>
0

>  <Molecular Complexity>
0.59256

>  <Electronegative Atoms>
0

>  <Stereo Centers>
0

>  <Rotatable Bonds>
0

>  <Rings Closures>
2

>  <Aromatic Rings>
2

>  <Aromatic Atoms>
10

>  <Amides>
0

>  <Amines>
0

>  <Aromatic Nitrogens>
0

>  <Shape Index 2>
0.5

>  <Molecular Flexibility 2>
0

>  <Molecular Complexity 2>
0.59256

>  <Non-C/H Atoms>
0

>  <Electronegative Atoms 2>
0

>  <Stereo Centers 2>
0

>  <Rotatable Bonds 2>
0

>  <Rings Closures 2>
2

>  <Aromatic Rings 2>
2

>  <Aromatic Atoms 2>
10

>  <sp3-Atoms>
2

>  <Amides 2>
0

>  <Amines 2>
0

>  <Aromatic Nitrogens 2>
0

>  <Basic Nitrogens>
0

$$$$
1,4-Dimethylnaphthalene
Actelion Java MolfileCreator 2.0

  0  0  0  0  0  0              0 V3000
M  V30 BEGIN CTAB
M  V30 COUNTS 12 13 0 0 0
M  V30 BEGIN ATOM
M  V30 1 C 0.0 0.0 0.0 0
M  V30 2 C -0.0117 1.5066 0.0 0
M  V30 3 C -1.3065 -0.7415 0.0 0
M  V30 4 C 1.2829 -0.7415 0.0 0
M  V30 5 C 1.2712 2.2716 0.0 0
M  V30 6 C -1.3182 2.2716 0.0 0
M  V30 7 C -2.613 0.0235 0.0 0
M  V30 8 C 2.5659 0.0235 0.0 0
M  V30 9 C 2.5541 1.5301 0.0 0
M  V30 10 C -2.6248 1.5301 0.0 0
M  V30 11 C -3.9195 -0.7179 0.0 0
M  V30 12 C 3.8371 2.2952 0.0 0
M  V30 END ATOM
M  V30 BEGIN BOND
M  V30 1 1 1 2
M  V30 2 1 1 3
M  V30 3 2 1 4
M  V30 4 2 2 5
M  V30 5 1 2 6
M  V30 6 2 3 7
M  V30 7 1 4 8
M  V30 8 1 5 9
M  V30 9 2 6 10
M  V30 10 1 7 11
M  V30 11 1 9 12
M  V30 12 1 7 10
M  V30 13 2 8 9
M  V30 END BOND
M  V30 END CTAB
M  END
>  <Molecule Name>
1,4-Dimethylnaphthalene

>  <Order (spectra)>
194

>  <NAME>
1,4-Dimethylnaphthalene

>  <Molecular Formula>
C12H12

>  <Monoisotopic Mass>
156.0939

>  <SMILES>
CC1=CC2=C(C=C1)C=C(C)C=C2

>  <InChI>
InChI=1S/C12H12/c1-9-3-5-12-8-10(2)4-6-11(12)7-9/h3-8H,1-2H3

>  <InChIKey>
YGYNBBAUIYTWBF-UHFFFAOYSA-N

>  <Kingdom>
Organic compounds

>  <Superclass>
Benzenoids

>  <Class>
Naphthalenes

>  <Subclass>


>  <Parent Level 1>
Naphthalenes

>  <Parent Level 2>


>  <Parent Level 3>


>  <cLogP>
3.5418

>  <cLogS>
-3.91

>  <Druglikeness>
-2.4599

>  <NP-class probability>
0.83

>  <SmilesFragFp 3>


>  <MS_READY_SMILES>
CC1=CC2=C(C=C1)C=C(C)C=C2

>  <MS_READY_InChI>
InChI=1S/C12H12/c1-9-3-5-12-8-10(2)4-6-11(12)7-9/h3-8H,1-2H3

>  <QSAR_READY_SMILES>
CC1=CC2=C(C=C1)C=C(C)C=C2

>  <QSAR_READY_InChI>
InChI=1S/C12H12/c1-9-3-5-12-8-10(2)4-6-11(12)7-9/h3-8H,1-2H3

>  <DTXSID>
DTXSID0029187

>  <DTXCID>
DTXCID309187

>  <CASRN>
581-42-0

>  <EXPOCAST_MEDIAN_EXPOSURE_PREDICTION_MG/KG-BW/DAY>
4.97E-05

>  <BIOCONCENTRATION_FACTOR_TEST_PRED>
639.735

>  <BOILING_POINT_DEGC_TEST_PRED>
260.968

>  <48HR_DAPHNIA_LC50_MOL/L_TEST_PRED>
1.01E-05

>  <DENSITY_G/CM^3_TEST_PRED>
0.996

>  <DEVTOX_TEST_PRED>
0.429

>  <96HR_FATHEAD_MINNOW_MOL/L_TEST_PRED>
2.30E-05

>  <FLASH_POINT_DEGC_TEST_PRED>
109.045

>  <MELTING_POINT_DEGC_TEST_PRED>
53.077

>  <AMES_MUTAGENICITY_TEST_PRED>
0.546

>  <ORAL_RAT_LD50_MOL/KG_TEST_PRED>
0.0102802

>  <SURFACE_TENSION_DYN/CM_TEST_PRED>
36.392

>  <THERMAL_CONDUCTIVITY_MW/(M*K)_TEST_PRED>
122.988

>  <TETRAHYMENA_PYRIFORMIS_IGC50_MOL/L_TEST_PRED>
7.06E-05

>  <VISCOSITY_CP_CP_TEST_PRED>
4.79733

>  <VAPOR_PRESSURE_MMHG_TEST_PRED>
0.00606736

>  <WATER_SOLUBILITY_MOL/L_TEST_PRED>
3.70E-05

>  <ATMOSPHERIC_HYDROXYLATION_RATE_(AOH)_CM3/MOLECULE*SEC_OPERA_PRED>
4.70E-11

>  <BIOCONCENTRATION_FACTOR_OPERA_PRED>
468.348

>  <BIODEGRADATION_HALF_LIFE_DAYS_DAYS_OPERA_PRED>
18.1954

>  <BOILING_POINT_DEGC_OPERA_PRED>
265.5

>  <HENRYS_LAW_ATM-M3/MOLE_OPERA_PRED>
0.000610697

>  <OPERA_KM_DAYS_OPERA_PRED>
2.12539

>  <OCTANOL_AIR_PARTITION_COEFF_LOGKOA_OPERA_PRED>
5.96262

>  <SOIL_ADSORPTION_COEFFICIENT_KOC_L/KG_OPERA_PRED>
2903.28

>  <OCTANOL_WATER_PARTITION_LOGP_OPERA_PRED>
4.311

>  <MELTING_POINT_DEGC_OPERA_PRED>
25.74

>  <VAPOR_PRESSURE_MMHG_OPERA_PRED>
0.00437157

>  <WATER_SOLUBILITY_MOL/L_OPERA_PRED>
1.40E-05

>  <Shape Index>
0.66667

>  <Molecular Flexibility>
0

>  <Molecular Complexity>
0.56122

>  <Electronegative Atoms>
0

>  <Stereo Centers>
0

>  <Rotatable Bonds>
0

>  <Rings Closures>
2

>  <Aromatic Rings>
2

>  <Aromatic Atoms>
10

>  <Amides>
0

>  <Amines>
0

>  <Aromatic Nitrogens>
0

>  <Shape Index 2>
0.66667

>  <Molecular Flexibility 2>
0

>  <Molecular Complexity 2>
0.56122

>  <Non-C/H Atoms>
0

>  <Electronegative Atoms 2>
0

>  <Stereo Centers 2>
0

>  <Rotatable Bonds 2>
0

>  <Rings Closures 2>
2

>  <Aromatic Rings 2>
2

>  <Aromatic Atoms 2>
10

>  <sp3-Atoms>
2

>  <Amides 2>
0

>  <Amines 2>
0

>  <Aromatic Nitrogens 2>
0

>  <Basic Nitrogens>
0

$$$$
1,5-Dimethylnaphthalene
Actelion Java MolfileCreator 2.0

  0  0  0  0  0  0              0 V3000
M  V30 BEGIN CTAB
M  V30 COUNTS 12 13 0 0 0
M  V30 BEGIN ATOM
M  V30 1 C 0.0 0.0 0.0 0
M  V30 2 C 1.2887 0.7566 0.0 0
M  V30 3 C -1.3123 0.7566 0.0 0
M  V30 4 C -0.0118 -1.4897 0.0 0
M  V30 5 C 1.2769 2.27 0.0 0
M  V30 6 C 2.5774 0.0118 0.0 0
M  V30 7 C -1.3241 2.27 0.0 0
M  V30 8 C -2.6247 0.0118 0.0 0
M  V30 9 C 1.2769 -2.2345 0.0 0
M  V30 10 C -0.0354 3.0267 0.0 0
M  V30 11 C 2.5656 3.0267 0.0 0
M  V30 12 C 2.5656 -1.4778 0.0 0
M  V30 END ATOM
M  V30 BEGIN BOND
M  V30 1 1 1 2
M  V30 2 1 1 3
M  V30 3 2 1 4
M  V30 4 1 2 5
M  V30 5 2 2 6
M  V30 6 2 3 7
M  V30 7 1 3 8
M  V30 8 1 4 9
M  V30 9 2 5 10
M  V30 10 1 5 11
M  V30 11 1 6 12
M  V30 12 1 7 10
M  V30 13 2 9 12
M  V30 END BOND
M  V30 END CTAB
M  END
>  <Molecule Name>
1,5-Dimethylnaphthalene

>  <Order (spectra)>
195

>  <NAME>
1,5-Dimethylnaphthalene

>  <Molecular Formula>
C12H12

>  <Monoisotopic Mass>
156.0939

>  <SMILES>
CC1=CC=C(C)C2=C1C=CC=C2

>  <InChI>
InChI=1S/C12H12/c1-9-7-8-10(2)12-6-4-3-5-11(9)12/h3-8H,1-2H3

>  <InChIKey>
APQSQLNWAIULLK-UHFFFAOYSA-N

>  <Kingdom>
Organic compounds

>  <Superclass>
Benzenoids

>  <Class>
Naphthalenes

>  <Subclass>


>  <Parent Level 1>
Naphthalenes

>  <Parent Level 2>


>  <Parent Level 3>


>  <cLogP>
3.5418

>  <cLogS>
-3.91

>  <Druglikeness>
-2.4599

>  <NP-class probability>
0.83

>  <SmilesFragFp 3>


>  <MS_READY_SMILES>
CC1=CC=C(C)C2=C1C=CC=C2

>  <MS_READY_InChI>
InChI=1S/C12H12/c1-9-7-8-10(2)12-6-4-3-5-11(9)12/h3-8H,1-2H3

>  <QSAR_READY_SMILES>
CC1=CC=C(C)C2=C1C=CC=C2

>  <QSAR_READY_InChI>
InChI=1S/C12H12/c1-9-7-8-10(2)12-6-4-3-5-11(9)12/h3-8H,1-2H3

>  <DTXSID>
DTXSID8035423

>  <DTXCID>
DTXCID6015423

>  <CASRN>
571-58-4

>  <EXPOCAST_MEDIAN_EXPOSURE_PREDICTION_MG/KG-BW/DAY>
3.96E-05

>  <BIOCONCENTRATION_FACTOR_TEST_PRED>
449.78

>  <BOILING_POINT_DEGC_TEST_PRED>
263.949

>  <48HR_DAPHNIA_LC50_MOL/L_TEST_PRED>
0.000014388

>  <DENSITY_G/CM^3_TEST_PRED>
0.996

>  <DEVTOX_TEST_PRED>
0.507

>  <96HR_FATHEAD_MINNOW_MOL/L_TEST_PRED>
0.000028119

>  <FLASH_POINT_DEGC_TEST_PRED>
109.939

>  <MELTING_POINT_DEGC_TEST_PRED>
63.175

>  <AMES_MUTAGENICITY_TEST_PRED>
-

>  <ORAL_RAT_LD50_MOL/KG_TEST_PRED>
0.00905733

>  <SURFACE_TENSION_DYN/CM_TEST_PRED>
36.635

>  <THERMAL_CONDUCTIVITY_MW/(M*K)_TEST_PRED>
122.809

>  <TETRAHYMENA_PYRIFORMIS_IGC50_MOL/L_TEST_PRED>
0.000083946

>  <VISCOSITY_CP_CP_TEST_PRED>
4.65586

>  <VAPOR_PRESSURE_MMHG_TEST_PRED>
0.00526017

>  <WATER_SOLUBILITY_MOL/L_TEST_PRED>
5.87E-05

>  <ATMOSPHERIC_HYDROXYLATION_RATE_(AOH)_CM3/MOLECULE*SEC_OPERA_PRED>
7.05E-11

>  <BIOCONCENTRATION_FACTOR_OPERA_PRED>
217.693

>  <BIODEGRADATION_HALF_LIFE_DAYS_DAYS_OPERA_PRED>
14.9932

>  <BOILING_POINT_DEGC_OPERA_PRED>
265.942

>  <HENRYS_LAW_ATM-M3/MOLE_OPERA_PRED>
0.00115978

>  <OPERA_KM_DAYS_OPERA_PRED>
5.11354

>  <OCTANOL_AIR_PARTITION_COEFF_LOGKOA_OPERA_PRED>
5.78904

>  <SOIL_ADSORPTION_COEFFICIENT_KOC_L/KG_OPERA_PRED>
4177.52

>  <OCTANOL_WATER_PARTITION_LOGP_OPERA_PRED>
4.36744

>  <MELTING_POINT_DEGC_OPERA_PRED>
-4.76849

>  <VAPOR_PRESSURE_MMHG_OPERA_PRED>
0.0213611

>  <WATER_SOLUBILITY_MOL/L_OPERA_PRED>
7.28E-05

>  <Shape Index>
0.5

>  <Molecular Flexibility>
0

>  <Molecular Complexity>
0.59725

>  <Electronegative Atoms>
0

>  <Stereo Centers>
0

>  <Rotatable Bonds>
0

>  <Rings Closures>
2

>  <Aromatic Rings>
2

>  <Aromatic Atoms>
10

>  <Amides>
0

>  <Amines>
0

>  <Aromatic Nitrogens>
0

>  <Shape Index 2>
0.5

>  <Molecular Flexibility 2>
0

>  <Molecular Complexity 2>
0.59725

>  <Non-C/H Atoms>
0

>  <Electronegative Atoms 2>
0

>  <Stereo Centers 2>
0

>  <Rotatable Bonds 2>
0

>  <Rings Closures 2>
2

>  <Aromatic Rings 2>
2

>  <Aromatic Atoms 2>
10

>  <sp3-Atoms>
2

>  <Amides 2>
0

>  <Amines 2>
0

>  <Aromatic Nitrogens 2>
0

>  <Basic Nitrogens>
0

$$$$
1,2-Dimethylnaphthalene
Actelion Java MolfileCreator 2.0

  0  0  0  0  0  0              0 V3000
M  V30 BEGIN CTAB
M  V30 COUNTS 12 13 0 0 0
M  V30 BEGIN ATOM
M  V30 1 C 0.0 0.0 0.0 0
M  V30 2 C 1.2873 0.7558 0.0 0
M  V30 3 C -1.311 0.7558 0.0 0
M  V30 4 C -0.0118 -1.4881 0.0 0
M  V30 5 C 1.2755 2.2676 0.0 0
M  V30 6 C 2.5747 0.0118 0.0 0
M  V30 7 C -1.3228 2.2676 0.0 0
M  V30 8 C -2.622 0.0118 0.0 0
M  V30 9 C 1.2755 -2.2322 0.0 0
M  V30 10 C -0.0354 3.0235 0.0 0
M  V30 11 C 2.5629 -1.4763 0.0 0
M  V30 12 C -2.6338 3.0235 0.0 0
M  V30 END ATOM
M  V30 BEGIN BOND
M  V30 1 1 1 2
M  V30 2 1 1 3
M  V30 3 2 1 4
M  V30 4 1 2 5
M  V30 5 2 2 6
M  V30 6 2 3 7
M  V30 7 1 3 8
M  V30 8 1 4 9
M  V30 9 2 5 10
M  V30 10 1 6 11
M  V30 11 1 7 12
M  V30 12 1 7 10
M  V30 13 2 9 11
M  V30 END BOND
M  V30 END CTAB
M  END
>  <Molecule Name>
1,2-Dimethylnaphthalene

>  <Order (spectra)>
196

>  <NAME>
1,2-Dimethylnaphthalene

>  <Molecular Formula>
C12H12

>  <Monoisotopic Mass>
156.0939

>  <SMILES>
CC1=C(C)C2=CC=CC=C2C=C1

>  <InChI>
InChI=1S/C12H12/c1-9-7-8-11-5-3-4-6-12(11)10(9)2/h3-8H,1-2H3

>  <InChIKey>
QNLZIZAQLLYXTC-UHFFFAOYSA-N

>  <Kingdom>
Organic compounds

>  <Superclass>
Benzenoids

>  <Class>
Naphthalenes

>  <Subclass>


>  <Parent Level 1>
Naphthalenes

>  <Parent Level 2>


>  <Parent Level 3>


>  <cLogP>
3.5418

>  <cLogS>
-3.91

>  <Druglikeness>
-2.4599

>  <NP-class probability>
0.96

>  <SmilesFragFp 3>


>  <MS_READY_SMILES>
CC1=C(C)C2=CC=CC=C2C=C1

>  <MS_READY_InChI>
InChI=1S/C12H12/c1-9-7-8-11-5-3-4-6-12(11)10(9)2/h3-8H,1-2H3

>  <QSAR_READY_SMILES>
CC1=C(C)C2=CC=CC=C2C=C1

>  <QSAR_READY_InChI>
InChI=1S/C12H12/c1-9-7-8-11-5-3-4-6-12(11)10(9)2/h3-8H,1-2H3

>  <DTXSID>
DTXSID1058717

>  <DTXCID>
DTXCID605130

>  <CASRN>
573-98-8

>  <EXPOCAST_MEDIAN_EXPOSURE_PREDICTION_MG/KG-BW/DAY>
4.31E-06

>  <BIOCONCENTRATION_FACTOR_TEST_PRED>
524.807

>  <BOILING_POINT_DEGC_TEST_PRED>
262.624

>  <48HR_DAPHNIA_LC50_MOL/L_TEST_PRED>
0.000012218

>  <DENSITY_G/CM^3_TEST_PRED>
0.996

>  <DEVTOX_TEST_PRED>
0.511

>  <96HR_FATHEAD_MINNOW_MOL/L_TEST_PRED>
2.59E-05

>  <FLASH_POINT_DEGC_TEST_PRED>
108.993

>  <MELTING_POINT_DEGC_TEST_PRED>
19.878

>  <AMES_MUTAGENICITY_TEST_PRED>
-

>  <ORAL_RAT_LD50_MOL/KG_TEST_PRED>
0.0104472

>  <SURFACE_TENSION_DYN/CM_TEST_PRED>
36.189

>  <THERMAL_CONDUCTIVITY_MW/(M*K)_TEST_PRED>
122.642

>  <TETRAHYMENA_PYRIFORMIS_IGC50_MOL/L_TEST_PRED>
0.000072277

>  <VISCOSITY_CP_CP_TEST_PRED>
4.76431

>  <VAPOR_PRESSURE_MMHG_TEST_PRED>
0.00972747

>  <WATER_SOLUBILITY_MOL/L_TEST_PRED>
5.13E-05

>  <ATMOSPHERIC_HYDROXYLATION_RATE_(AOH)_CM3/MOLECULE*SEC_OPERA_PRED>
4.42E-11

>  <BIOCONCENTRATION_FACTOR_OPERA_PRED>
469.082

>  <BIODEGRADATION_HALF_LIFE_DAYS_DAYS_OPERA_PRED>
14.9911

>  <BOILING_POINT_DEGC_OPERA_PRED>
265.5

>  <HENRYS_LAW_ATM-M3/MOLE_OPERA_PRED>
0.000551672

>  <OPERA_KM_DAYS_OPERA_PRED>
2.4046

>  <OCTANOL_AIR_PARTITION_COEFF_LOGKOA_OPERA_PRED>
5.96262

>  <SOIL_ADSORPTION_COEFFICIENT_KOC_L/KG_OPERA_PRED>
3251.63

>  <OCTANOL_WATER_PARTITION_LOGP_OPERA_PRED>
4.3115

>  <MELTING_POINT_DEGC_OPERA_PRED>
25.74

>  <VAPOR_PRESSURE_MMHG_OPERA_PRED>
0.0123118

>  <WATER_SOLUBILITY_MOL/L_OPERA_PRED>
1.76E-05

>  <Shape Index>
0.58333

>  <Molecular Flexibility>
0

>  <Molecular Complexity>
0.61893

>  <Electronegative Atoms>
0

>  <Stereo Centers>
0

>  <Rotatable Bonds>
0

>  <Rings Closures>
2

>  <Aromatic Rings>
2

>  <Aromatic Atoms>
10

>  <Amides>
0

>  <Amines>
0

>  <Aromatic Nitrogens>
0

>  <Shape Index 2>
0.58333

>  <Molecular Flexibility 2>
0

>  <Molecular Complexity 2>
0.61893

>  <Non-C/H Atoms>
0

>  <Electronegative Atoms 2>
0

>  <Stereo Centers 2>
0

>  <Rotatable Bonds 2>
0

>  <Rings Closures 2>
2

>  <Aromatic Rings 2>
2

>  <Aromatic Atoms 2>
10

>  <sp3-Atoms>
2

>  <Amides 2>
0

>  <Amines 2>
0

>  <Aromatic Nitrogens 2>
0

>  <Basic Nitrogens>
0

$$$$
1,8-Dimethylnaphthalene
Actelion Java MolfileCreator 2.0

  0  0  0  0  0  0              0 V3000
M  V30 BEGIN CTAB
M  V30 COUNTS 12 13 0 0 0
M  V30 BEGIN ATOM
M  V30 1 C 0.0 0.0 0.0 0
M  V30 2 C 1.2877 0.7561 0.0 0
M  V30 3 C -1.3113 0.7561 0.0 0
M  V30 4 C -0.0118 -1.4886 0.0 0
M  V30 5 C 1.2759 2.2683 0.0 0
M  V30 6 C 2.5755 0.0118 0.0 0
M  V30 7 C -1.3232 2.2683 0.0 0
M  V30 8 C -2.6227 0.0118 0.0 0
M  V30 9 C 1.2759 -2.2329 0.0 0
M  V30 10 C -1.3232 -2.2329 0.0 0
M  V30 11 C -0.0354 3.0244 0.0 0
M  V30 12 C 2.5637 -1.4767 0.0 0
M  V30 END ATOM
M  V30 BEGIN BOND
M  V30 1 1 1 2
M  V30 2 1 1 3
M  V30 3 2 1 4
M  V30 4 1 2 5
M  V30 5 2 2 6
M  V30 6 2 3 7
M  V30 7 1 3 8
M  V30 8 1 4 9
M  V30 9 1 4 10
M  V30 10 2 5 11
M  V30 11 1 6 12
M  V30 12 1 7 11
M  V30 13 2 9 12
M  V30 END BOND
M  V30 END CTAB
M  END
>  <Molecule Name>
1,8-Dimethylnaphthalene

>  <Order (spectra)>
197

>  <NAME>
1,8-Dimethylnaphthalene

>  <Molecular Formula>
C12H12

>  <Monoisotopic Mass>
156.0939

>  <SMILES>
CC1=CC=CC2=CC=CC(C)=C12

>  <InChI>
InChI=1S/C12H12/c1-9-5-3-7-11-8-4-6-10(2)12(9)11/h3-8H,1-2H3

>  <InChIKey>
XAABPYINPXYOLM-UHFFFAOYSA-N

>  <Kingdom>
Organic compounds

>  <Superclass>
Benzenoids

>  <Class>
Naphthalenes

>  <Subclass>


>  <Parent Level 1>
Naphthalenes

>  <Parent Level 2>


>  <Parent Level 3>


>  <cLogP>
3.5418

>  <cLogS>
-3.91

>  <Druglikeness>
-2.4599

>  <NP-class probability>
0.83

>  <SmilesFragFp 3>


>  <MS_READY_SMILES>
CC1=CC=CC2=CC=CC(C)=C12

>  <MS_READY_InChI>
InChI=1S/C12H12/c1-9-5-3-7-11-8-4-6-10(2)12(9)11/h3-8H,1-2H3

>  <QSAR_READY_SMILES>
CC1=CC=CC2=CC=CC(C)=C12

>  <QSAR_READY_InChI>
InChI=1S/C12H12/c1-9-5-3-7-11-8-4-6-10(2)12(9)11/h3-8H,1-2H3

>  <DTXSID>
DTXSID6060347

>  <DTXCID>
DTXCID8042137

>  <CASRN>
569-41-5

>  <EXPOCAST_MEDIAN_EXPOSURE_PREDICTION_MG/KG-BW/DAY>
5.52E-06

>  <BIOCONCENTRATION_FACTOR_TEST_PRED>
410.204

>  <BOILING_POINT_DEGC_TEST_PRED>
263.917

>  <48HR_DAPHNIA_LC50_MOL/L_TEST_PRED>
1.47E-05

>  <DENSITY_G/CM^3_TEST_PRED>
0.996

>  <DEVTOX_TEST_PRED>
0.464

>  <96HR_FATHEAD_MINNOW_MOL/L_TEST_PRED>
2.80E-05

>  <FLASH_POINT_DEGC_TEST_PRED>
109.219

>  <MELTING_POINT_DEGC_TEST_PRED>
54.168

>  <AMES_MUTAGENICITY_TEST_PRED>
-

>  <ORAL_RAT_LD50_MOL/KG_TEST_PRED>
0.0108893

>  <SURFACE_TENSION_DYN/CM_TEST_PRED>
36.62

>  <THERMAL_CONDUCTIVITY_MW/(M*K)_TEST_PRED>
122.823

>  <TETRAHYMENA_PYRIFORMIS_IGC50_MOL/L_TEST_PRED>
8.09E-05

>  <VISCOSITY_CP_CP_TEST_PRED>
4.62381

>  <VAPOR_PRESSURE_MMHG_TEST_PRED>
0.00653131

>  <WATER_SOLUBILITY_MOL/L_TEST_PRED>
5.51E-05

>  <ATMOSPHERIC_HYDROXYLATION_RATE_(AOH)_CM3/MOLECULE*SEC_OPERA_PRED>
4.31E-11

>  <BIOCONCENTRATION_FACTOR_OPERA_PRED>
469.082

>  <BIODEGRADATION_HALF_LIFE_DAYS_DAYS_OPERA_PRED>
13.3319

>  <BOILING_POINT_DEGC_OPERA_PRED>
265.5

>  <HENRYS_LAW_ATM-M3/MOLE_OPERA_PRED>
0.000531012

>  <OPERA_KM_DAYS_OPERA_PRED>
2.3231

>  <OCTANOL_AIR_PARTITION_COEFF_LOGKOA_OPERA_PRED>
5.96262

>  <SOIL_ADSORPTION_COEFFICIENT_KOC_L/KG_OPERA_PRED>
2878.02

>  <OCTANOL_WATER_PARTITION_LOGP_OPERA_PRED>
4.26293

>  <MELTING_POINT_DEGC_OPERA_PRED>
25.74

>  <VAPOR_PRESSURE_MMHG_OPERA_PRED>
0.00483662

>  <WATER_SOLUBILITY_MOL/L_OPERA_PRED>
2.19E-05

>  <Shape Index>
0.5

>  <Molecular Flexibility>
0

>  <Molecular Complexity>
0.58275

>  <Electronegative Atoms>
0

>  <Stereo Centers>
0

>  <Rotatable Bonds>
0

>  <Rings Closures>
2

>  <Aromatic Rings>
2

>  <Aromatic Atoms>
10

>  <Amides>
0

>  <Amines>
0

>  <Aromatic Nitrogens>
0

>  <Shape Index 2>
0.5

>  <Molecular Flexibility 2>
0

>  <Molecular Complexity 2>
0.58275

>  <Non-C/H Atoms>
0

>  <Electronegative Atoms 2>
0

>  <Stereo Centers 2>
0

>  <Rotatable Bonds 2>
0

>  <Rings Closures 2>
2

>  <Aromatic Rings 2>
2

>  <Aromatic Atoms 2>
10

>  <sp3-Atoms>
2

>  <Amides 2>
0

>  <Amines 2>
0

>  <Aromatic Nitrogens 2>
0

>  <Basic Nitrogens>
0

$$$$
Carbaryl
Actelion Java MolfileCreator 2.0

  0  0  0  0  0  0              0 V3000
M  V30 BEGIN CTAB
M  V30 COUNTS 15 16 0 0 0
M  V30 BEGIN ATOM
M  V30 1 O 0.0 0.0 0.0 0
M  V30 2 C -0.0118 1.519 0.0 0
M  V30 3 O 1.2816 2.2785 0.0 0
M  V30 4 N -1.3291 2.2785 0.0 0
M  V30 5 C 2.5751 1.5427 0.0 0
M  V30 6 C -2.6463 1.5427 0.0 0
M  V30 7 C 2.5633 0.0474 0.0 0
M  V30 8 C 3.8687 2.3022 0.0 0
M  V30 9 C 3.8568 -0.6883 0.0 0
M  V30 10 C 1.246 -0.6883 0.0 0
M  V30 11 C 5.1622 1.5664 0.0 0
M  V30 12 C 5.1503 0.0712 0.0 0
M  V30 13 C 3.8449 -2.1835 0.0 0
M  V30 14 C 1.2341 -2.1835 0.0 0
M  V30 15 C 2.5277 -2.9193 0.0 0
M  V30 END ATOM
M  V30 BEGIN BOND
M  V30 1 2 1 2
M  V30 2 1 2 3
M  V30 3 1 2 4
M  V30 4 1 3 5
M  V30 5 1 4 6
M  V30 6 1 5 7
M  V30 7 2 5 8
M  V30 8 1 7 9
M  V30 9 2 7 10
M  V30 10 1 8 11
M  V30 11 1 9 12
M  V30 12 2 9 13
M  V30 13 1 10 14
M  V30 14 1 13 15
M  V30 15 2 11 12
M  V30 16 2 14 15
M  V30 END BOND
M  V30 END CTAB
M  END
>  <Molecule Name>
Carbaryl

>  <Order (spectra)>
240

>  <NAME>
Carbaryl

>  <Molecular Formula>
C12H11NO2

>  <Monoisotopic Mass>
201.078979

>  <SMILES>
CNC(=O)OC1=C2C=CC=CC2=CC=C1

>  <InChI>
InChI=1S/C12H11NO2/c1-13-12(14)15-11-8-4-6-9-5-2-3-7-10(9)11/h2-8H,1H3,(H,13,14)

>  <InChIKey>
CVXBEEMKQHEXEN-UHFFFAOYSA-N

>  <Kingdom>
Organic compounds

>  <Superclass>
Benzenoids

>  <Class>
Naphthalenes

>  <Subclass>


>  <Parent Level 1>
Naphthalenes

>  <Parent Level 2>


>  <Parent Level 3>


>  <cLogP>
2.5697

>  <cLogS>
-3.701

>  <Druglikeness>
-3.09

>  <NP-class probability>
0.34

>  <SmilesFragFp 3>


>  <MS_READY_SMILES>
CNC(=O)OC1=C2C=CC=CC2=CC=C1

>  <MS_READY_InChI>
InChI=1S/C12H11NO2/c1-13-12(14)15-11-8-4-6-9-5-2-3-7-10(9)11/h2-8H,1H3,(H,13,14)

>  <QSAR_READY_SMILES>
CNC(=O)OC1=C2C=CC=CC2=CC=C1

>  <QSAR_READY_InChI>
InChI=1S/C12H11NO2/c1-13-12(14)15-11-8-4-6-9-5-2-3-7-10(9)11/h2-8H,1H3,(H,13,14)

>  <DTXSID>
DTXSID9020247

>  <DTXCID>
DTXCID10247

>  <CASRN>
63-25-2

>  <EXPOCAST_MEDIAN_EXPOSURE_PREDICTION_MG/KG-BW/DAY>
4.28E-07

>  <BIOCONCENTRATION_FACTOR_TEST_PRED>
4.69894

>  <BOILING_POINT_DEGC_TEST_PRED>
311.019

>  <48HR_DAPHNIA_LC50_MOL/L_TEST_PRED>
4.34E-06

>  <DENSITY_G/CM^3_TEST_PRED>
1.131

>  <DEVTOX_TEST_PRED>
0.784

>  <96HR_FATHEAD_MINNOW_MOL/L_TEST_PRED>
2.25E-05

>  <FLASH_POINT_DEGC_TEST_PRED>
148.896

>  <MELTING_POINT_DEGC_TEST_PRED>
106.447

>  <AMES_MUTAGENICITY_TEST_PRED>
0.655

>  <ORAL_RAT_LD50_MOL/KG_TEST_PRED>
0.00146893

>  <SURFACE_TENSION_DYN/CM_TEST_PRED>
-

>  <THERMAL_CONDUCTIVITY_MW/(M*K)_TEST_PRED>
-

>  <TETRAHYMENA_PYRIFORMIS_IGC50_MOL/L_TEST_PRED>
0.000118304

>  <VISCOSITY_CP_CP_TEST_PRED>
29.4442

>  <VAPOR_PRESSURE_MMHG_TEST_PRED>
5.62E-06

>  <WATER_SOLUBILITY_MOL/L_TEST_PRED>
0.000414954

>  <ATMOSPHERIC_HYDROXYLATION_RATE_(AOH)_CM3/MOLECULE*SEC_OPERA_PRED>
1.41E-11

>  <BIOCONCENTRATION_FACTOR_OPERA_PRED>
8.88763

>  <BIODEGRADATION_HALF_LIFE_DAYS_DAYS_OPERA_PRED>
3.53203

>  <BOILING_POINT_DEGC_OPERA_PRED>
314.943

>  <HENRYS_LAW_ATM-M3/MOLE_OPERA_PRED>
1.38E-08

>  <OPERA_KM_DAYS_OPERA_PRED>
0.0661502

>  <OCTANOL_AIR_PARTITION_COEFF_LOGKOA_OPERA_PRED>
9.12776

>  <SOIL_ADSORPTION_COEFFICIENT_KOC_L/KG_OPERA_PRED>
250.472

>  <OCTANOL_WATER_PARTITION_LOGP_OPERA_PRED>
2.35802

>  <MELTING_POINT_DEGC_OPERA_PRED>
144.908

>  <VAPOR_PRESSURE_MMHG_OPERA_PRED>
1.36E-06

>  <WATER_SOLUBILITY_MOL/L_OPERA_PRED>
0.00031257

>  <Shape Index>
0.6

>  <Molecular Flexibility>
0.048625

>  <Molecular Complexity>
0.64441

>  <Electronegative Atoms>
3

>  <Stereo Centers>
0

>  <Rotatable Bonds>
2

>  <Rings Closures>
2

>  <Aromatic Rings>
2

>  <Aromatic Atoms>
10

>  <Amides>
1

>  <Amines>
0

>  <Aromatic Nitrogens>
0

>  <Shape Index 2>
0.6

>  <Molecular Flexibility 2>
0.048625

>  <Molecular Complexity 2>
0.64441

>  <Non-C/H Atoms>
3

>  <Electronegative Atoms 2>
3

>  <Stereo Centers 2>
0

>  <Rotatable Bonds 2>
2

>  <Rings Closures 2>
2

>  <Aromatic Rings 2>
2

>  <Aromatic Atoms 2>
10

>  <sp3-Atoms>
2

>  <Amides 2>
1

>  <Amines 2>
0

>  <Aromatic Nitrogens 2>
0

>  <Basic Nitrogens>
0

$$$$
Methomyl
Actelion Java MolfileCreator 2.0

  0  0  0  0  0  0              0 V3000
M  V30 BEGIN CTAB
M  V30 COUNTS 10 9 0 0 0
M  V30 BEGIN ATOM
M  V30 1 S 0.0 0.0 0.0 0
M  V30 2 C -1.3056 0.7528 0.0 0
M  V30 3 C 1.2821 0.7528 0.0 0
M  V30 4 N -2.6113 0.0117 0.0 0
M  V30 5 C -1.3174 2.2584 0.0 0
M  V30 6 O -3.9169 0.7645 0.0 0
M  V30 7 C -5.2226 0.0235 0.0 0
M  V30 8 O -5.2344 -1.4585 0.0 0
M  V30 9 N -6.5283 0.7763 0.0 0
M  V30 10 C -7.8339 0.0352 0.0 0
M  V30 END ATOM
M  V30 BEGIN BOND
M  V30 1 1 1 2
M  V30 2 1 1 3
M  V30 3 2 2 4 CFG=2
M  V30 4 1 2 5
M  V30 5 1 4 6
M  V30 6 1 6 7
M  V30 7 2 7 8
M  V30 8 1 7 9
M  V30 9 1 9 10
M  V30 END BOND
M  V30 END CTAB
M  END
>  <Molecule Name>
Methomyl

>  <Order (spectra)>
248

>  <NAME>
Methomyl

>  <Molecular Formula>
C5H10N2O2S

>  <Monoisotopic Mass>
162.046298

>  <SMILES>
CNC(=O)ON=C(C)SC

>  <InChI>
InChI=1S/C5H10N2O2S/c1-4(10-3)7-9-5(8)6-2/h1-3H3,(H,6,8)

>  <InChIKey>
UHXUZOCRWCRNSJ-UHFFFAOYSA-N

>  <Kingdom>
Organic compounds

>  <Superclass>
Organic acids and derivatives

>  <Class>
Organic carbonic acids and derivatives

>  <Subclass>


>  <Parent Level 1>
Organic carbonic acids and derivatives

>  <Parent Level 2>


>  <Parent Level 3>


>  <cLogP>
0.6131

>  <cLogS>
-1.349

>  <Druglikeness>
-3.2465

>  <NP-class probability>
0.34

>  <SmilesFragFp 3>


>  <MS_READY_SMILES>
CNC(=O)ON=C(C)SC

>  <MS_READY_InChI>
InChI=1S/C5H10N2O2S/c1-4(10-3)7-9-5(8)6-2/h1-3H3,(H,6,8)

>  <QSAR_READY_SMILES>
CNC(=O)ON=C(C)SC

>  <QSAR_READY_InChI>
InChI=1S/C5H10N2O2S/c1-4(10-3)7-9-5(8)6-2/h1-3H3,(H,6,8)

>  <DTXSID>
DTXSID1022267

>  <DTXCID>
DTXCID40810024

>  <CASRN>
16752-77-5

>  <EXPOCAST_MEDIAN_EXPOSURE_PREDICTION_MG/KG-BW/DAY>
3.86E-07

>  <BIOCONCENTRATION_FACTOR_TEST_PRED>
2.29615

>  <BOILING_POINT_DEGC_TEST_PRED>
204.528

>  <48HR_DAPHNIA_LC50_MOL/L_TEST_PRED>
3.66E-06

>  <DENSITY_G/CM^3_TEST_PRED>
1.125

>  <DEVTOX_TEST_PRED>
0.501

>  <96HR_FATHEAD_MINNOW_MOL/L_TEST_PRED>
0.000158489

>  <FLASH_POINT_DEGC_TEST_PRED>
111.117

>  <MELTING_POINT_DEGC_TEST_PRED>
58.029

>  <AMES_MUTAGENICITY_TEST_PRED>
0.871

>  <ORAL_RAT_LD50_MOL/KG_TEST_PRED>
0.000168267

>  <SURFACE_TENSION_DYN/CM_TEST_PRED>
-

>  <THERMAL_CONDUCTIVITY_MW/(M*K)_TEST_PRED>
-

>  <TETRAHYMENA_PYRIFORMIS_IGC50_MOL/L_TEST_PRED>
-

>  <VISCOSITY_CP_CP_TEST_PRED>
-

>  <VAPOR_PRESSURE_MMHG_TEST_PRED>
0.000138357

>  <WATER_SOLUBILITY_MOL/L_TEST_PRED>
0.242103

>  <ATMOSPHERIC_HYDROXYLATION_RATE_(AOH)_CM3/MOLECULE*SEC_OPERA_PRED>
1.12E-11

>  <BIOCONCENTRATION_FACTOR_OPERA_PRED>
3.54426

>  <BIODEGRADATION_HALF_LIFE_DAYS_DAYS_OPERA_PRED>
3.54663

>  <BOILING_POINT_DEGC_OPERA_PRED>
230.042

>  <HENRYS_LAW_ATM-M3/MOLE_OPERA_PRED>
1.98E-08

>  <OPERA_KM_DAYS_OPERA_PRED>
0.113843

>  <OCTANOL_AIR_PARTITION_COEFF_LOGKOA_OPERA_PRED>
6.47551

>  <SOIL_ADSORPTION_COEFFICIENT_KOC_L/KG_OPERA_PRED>
20.1143

>  <OCTANOL_WATER_PARTITION_LOGP_OPERA_PRED>
0.600496

>  <MELTING_POINT_DEGC_OPERA_PRED>
78.0482

>  <VAPOR_PRESSURE_MMHG_OPERA_PRED>
5.45E-06

>  <WATER_SOLUBILITY_MOL/L_OPERA_PRED>
0.346095

>  <Shape Index>
0.8

>  <Molecular Flexibility>
0.43735

>  <Molecular Complexity>
0.57565

>  <Electronegative Atoms>
5

>  <Stereo Centers>
0

>  <Rotatable Bonds>
3

>  <Rings Closures>
0

>  <Aromatic Rings>
0

>  <Aromatic Atoms>
0

>  <Amides>
1

>  <Amines>
0

>  <Aromatic Nitrogens>
0

>  <Shape Index 2>
0.8

>  <Molecular Flexibility 2>
0.43735

>  <Molecular Complexity 2>
0.57565

>  <Non-C/H Atoms>
5

>  <Electronegative Atoms 2>
5

>  <Stereo Centers 2>
0

>  <Rotatable Bonds 2>
3

>  <Rings Closures 2>
0

>  <Aromatic Rings 2>
0

>  <Aromatic Atoms 2>
0

>  <sp3-Atoms>
5

>  <Amides 2>
1

>  <Amines 2>
0

>  <Aromatic Nitrogens 2>
0

>  <Basic Nitrogens>
0

$$$$
Cycluron
Actelion Java MolfileCreator 2.0

  0  0  0  0  0  0              0 V3000
M  V30 BEGIN CTAB
M  V30 COUNTS 14 14 0 0 0
M  V30 BEGIN ATOM
M  V30 1 O 0.0 0.0 0.0 0
M  V30 2 C -0.0117 1.5079 0.0 0
M  V30 3 N 1.2723 2.2619 0.0 0
M  V30 4 N -1.3194 2.2619 0.0 0
M  V30 5 C 2.5564 1.5197 0.0 0
M  V30 6 C 1.2605 3.7698 0.0 0
M  V30 7 C -2.6271 1.5197 0.0 0
M  V30 8 C -2.4386 0.0471 0.0 0
M  V30 9 C -3.8287 2.4386 0.0 0
M  V30 10 C -3.3575 -1.1309 0.0 0
M  V30 11 C -5.3248 2.2501 0.0 0
M  V30 12 C -4.8536 -1.3194 0.0 0
M  V30 13 C -6.2437 1.072 0.0 0
M  V30 14 C -6.0553 -0.4005 0.0 0
M  V30 END ATOM
M  V30 BEGIN BOND
M  V30 1 2 1 2
M  V30 2 1 2 3
M  V30 3 1 2 4
M  V30 4 1 3 5
M  V30 5 1 3 6
M  V30 6 1 4 7
M  V30 7 1 7 8
M  V30 8 1 7 9
M  V30 9 1 8 10
M  V30 10 1 9 11
M  V30 11 1 10 12
M  V30 12 1 11 13
M  V30 13 1 12 14
M  V30 14 1 13 14
M  V30 END BOND
M  V30 END CTAB
M  END
>  <Molecule Name>
Cycluron

>  <Order (spectra)>
268

>  <NAME>
Cycluron

>  <Molecular Formula>
C11H22N2O

>  <Monoisotopic Mass>
198.173213

>  <SMILES>
CN(C)C(=O)NC1CCCCCCC1

>  <InChI>
InChI=1S/C11H22N2O/c1-13(2)11(14)12-10-8-6-4-3-5-7-9-10/h10H,3-9H2,1-2H3,(H,12,14)

>  <InChIKey>
DQZCVNGCTZLGAQ-UHFFFAOYSA-N

>  <Kingdom>
Organic compounds

>  <Superclass>
Organic acids and derivatives

>  <Class>
Organic carbonic acids and derivatives

>  <Subclass>
Ureas

>  <Parent Level 1>
Ureas

>  <Parent Level 2>


>  <Parent Level 3>


>  <cLogP>
2.6193

>  <cLogS>
-2.382

>  <Druglikeness>
-4.4415

>  <NP-class probability>
0.19

>  <SmilesFragFp 3>


>  <MS_READY_SMILES>
CN(C)C(=O)NC1CCCCCCC1

>  <MS_READY_InChI>
InChI=1S/C11H22N2O/c1-13(2)11(14)12-10-8-6-4-3-5-7-9-10/h10H,3-9H2,1-2H3,(H,12,14)

>  <QSAR_READY_SMILES>
CN(C)C(=O)NC1CCCCCCC1

>  <QSAR_READY_InChI>
InChI=1S/C11H22N2O/c1-13(2)11(14)12-10-8-6-4-3-5-7-9-10/h10H,3-9H2,1-2H3,(H,12,14)

>  <DTXSID>
DTXSID8041824

>  <DTXCID>
DTXCID6021824

>  <CASRN>
2163-69-1

>  <EXPOCAST_MEDIAN_EXPOSURE_PREDICTION_MG/KG-BW/DAY>
3.19E-07

>  <BIOCONCENTRATION_FACTOR_TEST_PRED>
6.80769

>  <BOILING_POINT_DEGC_TEST_PRED>
284.597

>  <48HR_DAPHNIA_LC50_MOL/L_TEST_PRED>
0.000294442

>  <DENSITY_G/CM^3_TEST_PRED>
1.033

>  <DEVTOX_TEST_PRED>
0.752

>  <96HR_FATHEAD_MINNOW_MOL/L_TEST_PRED>
0.000258821

>  <FLASH_POINT_DEGC_TEST_PRED>
141.644

>  <MELTING_POINT_DEGC_TEST_PRED>
131.384

>  <AMES_MUTAGENICITY_TEST_PRED>
0.08

>  <ORAL_RAT_LD50_MOL/KG_TEST_PRED>
0.00118032

>  <SURFACE_TENSION_DYN/CM_TEST_PRED>
-

>  <THERMAL_CONDUCTIVITY_MW/(M*K)_TEST_PRED>
-

>  <TETRAHYMENA_PYRIFORMIS_IGC50_MOL/L_TEST_PRED>
-

>  <VISCOSITY_CP_CP_TEST_PRED>
7.2277

>  <VAPOR_PRESSURE_MMHG_TEST_PRED>
0.000474242

>  <WATER_SOLUBILITY_MOL/L_TEST_PRED>
0.0041115

>  <ATMOSPHERIC_HYDROXYLATION_RATE_(AOH)_CM3/MOLECULE*SEC_OPERA_PRED>
3.91E-11

>  <BIOCONCENTRATION_FACTOR_OPERA_PRED>
8.28899

>  <BIODEGRADATION_HALF_LIFE_DAYS_DAYS_OPERA_PRED>
5.75306

>  <BOILING_POINT_DEGC_OPERA_PRED>
270.215

>  <HENRYS_LAW_ATM-M3/MOLE_OPERA_PRED>
1.74E-09

>  <OPERA_KM_DAYS_OPERA_PRED>
0.205455

>  <OCTANOL_AIR_PARTITION_COEFF_LOGKOA_OPERA_PRED>
8.91207

>  <SOIL_ADSORPTION_COEFFICIENT_KOC_L/KG_OPERA_PRED>
98.0934

>  <OCTANOL_WATER_PARTITION_LOGP_OPERA_PRED>
2.00025

>  <MELTING_POINT_DEGC_OPERA_PRED>
137.949

>  <VAPOR_PRESSURE_MMHG_OPERA_PRED>
5.02E-07

>  <WATER_SOLUBILITY_MOL/L_OPERA_PRED>
0.00557736

>  <Shape Index>
0.64286

>  <Molecular Flexibility>
0.54273

>  <Molecular Complexity>
0.47083

>  <Electronegative Atoms>
3

>  <Stereo Centers>
0

>  <Rotatable Bonds>
1

>  <Rings Closures>
1

>  <Aromatic Rings>
0

>  <Aromatic Atoms>
0

>  <Amides>
2

>  <Amines>
0

>  <Aromatic Nitrogens>
0

>  <Shape Index 2>
0.64286

>  <Molecular Flexibility 2>
0.54273

>  <Molecular Complexity 2>
0.47083

>  <Non-C/H Atoms>
3

>  <Electronegative Atoms 2>
3

>  <Stereo Centers 2>
0

>  <Rotatable Bonds 2>
1

>  <Rings Closures 2>
1

>  <Aromatic Rings 2>
0

>  <Aromatic Atoms 2>
0

>  <sp3-Atoms>
10

>  <Amides 2>
2

>  <Amines 2>
0

>  <Aromatic Nitrogens 2>
0

>  <Basic Nitrogens>
0

$$$$
Terbufos
Actelion Java MolfileCreator 2.0

  0  0  0  0  0  0              0 V3000
M  V30 BEGIN CTAB
M  V30 COUNTS 15 14 0 0 0
M  V30 BEGIN ATOM
M  V30 1 S 0.0 0.0 0.0 0
M  V30 2 P -0.0118 -1.4894 0.0 0
M  V30 3 S -1.3239 -0.7328 0.0 0
M  V30 4 O 1.2766 -0.7328 0.0 0
M  V30 5 O -0.0236 -2.9788 0.0 0
M  V30 6 C -2.636 -1.4775 0.0 0
M  V30 7 C 2.5651 -1.4775 0.0 0
M  V30 8 C -1.3357 -3.7235 0.0 0
M  V30 9 S -3.9481 -0.721 0.0 0
M  V30 10 C 3.8535 -0.721 0.0 0
M  V30 11 C -1.3475 -5.2129 0.0 0
M  V30 12 C -5.2602 -1.4657 0.0 0
M  V30 13 C -4.5273 -2.7542 0.0 0
M  V30 14 C -6.5723 -2.1986 0.0 0
M  V30 15 C -6.0167 -0.1536 0.0 0
M  V30 END ATOM
M  V30 BEGIN BOND
M  V30 1 2 1 2
M  V30 2 1 2 3
M  V30 3 1 2 4
M  V30 4 1 2 5
M  V30 5 1 3 6
M  V30 6 1 4 7
M  V30 7 1 5 8
M  V30 8 1 6 9
M  V30 9 1 7 10
M  V30 10 1 8 11
M  V30 11 1 9 12
M  V30 12 1 12 13
M  V30 13 1 12 14
M  V30 14 1 12 15
M  V30 END BOND
M  V30 END CTAB
M  END
>  <Molecule Name>
Terbufos

>  <Order (spectra)>
214

>  <NAME>
Terbufos

>  <Molecular Formula>
C9H21O2PS3

>  <Monoisotopic Mass>
288.044127

>  <SMILES>
CCOP(=S)(OCC)SCSC(C)(C)C

>  <InChI>
InChI=1S/C9H21O2PS3/c1-6-10-12(13,11-7-2)15-8-14-9(3,4)5/h6-8H2,1-5H3

>  <InChIKey>
XLNZEKHULJKQBA-UHFFFAOYSA-N

>  <Kingdom>
Organic compounds

>  <Superclass>
Organic acids and derivatives

>  <Class>
Organic dithiophosphoric acids and derivatives

>  <Subclass>
Dithiophosphate O-esters

>  <Parent Level 1>
Dithiophosphate O-esters

>  <Parent Level 2>


>  <Parent Level 3>


>  <cLogP>
4.3685

>  <cLogS>
-4.301

>  <Druglikeness>
-18.095

>  <NP-class probability>
0.85

>  <SmilesFragFp 3>


>  <MS_READY_SMILES>
CCOP(=S)(OCC)SCSC(C)(C)C

>  <MS_READY_InChI>
InChI=1S/C9H21O2PS3/c1-6-10-12(13,11-7-2)15-8-14-9(3,4)5/h6-8H2,1-5H3

>  <QSAR_READY_SMILES>
CCOP(=S)(OCC)SCSC(C)(C)C

>  <QSAR_READY_InChI>
InChI=1S/C9H21O2PS3/c1-6-10-12(13,11-7-2)15-8-14-9(3,4)5/h6-8H2,1-5H3

>  <DTXSID>
DTXSID2022254

>  <DTXCID>
DTXCID702254

>  <CASRN>
13071-79-9

>  <EXPOCAST_MEDIAN_EXPOSURE_PREDICTION_MG/KG-BW/DAY>
1.88E-07

>  <BIOCONCENTRATION_FACTOR_TEST_PRED>
125.893

>  <BOILING_POINT_DEGC_TEST_PRED>
-

>  <48HR_DAPHNIA_LC50_MOL/L_TEST_PRED>
1.29E-08

>  <DENSITY_G/CM^3_TEST_PRED>
1.152

>  <DEVTOX_TEST_PRED>
-0.779

>  <96HR_FATHEAD_MINNOW_MOL/L_TEST_PRED>
3.51E-06

>  <FLASH_POINT_DEGC_TEST_PRED>
146.141

>  <MELTING_POINT_DEGC_TEST_PRED>
-17.094

>  <AMES_MUTAGENICITY_TEST_PRED>
0.005

>  <ORAL_RAT_LD50_MOL/KG_TEST_PRED>
5.78E-06

>  <SURFACE_TENSION_DYN/CM_TEST_PRED>
-

>  <THERMAL_CONDUCTIVITY_MW/(M*K)_TEST_PRED>
-

>  <TETRAHYMENA_PYRIFORMIS_IGC50_MOL/L_TEST_PRED>
-

>  <VISCOSITY_CP_CP_TEST_PRED>
-

>  <VAPOR_PRESSURE_MMHG_TEST_PRED>
0.000148594

>  <WATER_SOLUBILITY_MOL/L_TEST_PRED>
6.25E-05

>  <ATMOSPHERIC_HYDROXYLATION_RATE_(AOH)_CM3/MOLECULE*SEC_OPERA_PRED>
2.42E-11

>  <BIOCONCENTRATION_FACTOR_OPERA_PRED>
64.5379

>  <BIODEGRADATION_HALF_LIFE_DAYS_DAYS_OPERA_PRED>
347.914

>  <BOILING_POINT_DEGC_OPERA_PRED>
315.357

>  <HENRYS_LAW_ATM-M3/MOLE_OPERA_PRED>
4.63E-06

>  <OPERA_KM_DAYS_OPERA_PRED>
1.06163

>  <OCTANOL_AIR_PARTITION_COEFF_LOGKOA_OPERA_PRED>
9.78096

>  <SOIL_ADSORPTION_COEFFICIENT_KOC_L/KG_OPERA_PRED>
660.363

>  <OCTANOL_WATER_PARTITION_LOGP_OPERA_PRED>
4.47814

>  <MELTING_POINT_DEGC_OPERA_PRED>
-29.1609

>  <VAPOR_PRESSURE_MMHG_OPERA_PRED>
0.000317909

>  <WATER_SOLUBILITY_MOL/L_OPERA_PRED>
1.71E-05

>  <Shape Index>
0.6

>  <Molecular Flexibility>
0.77307

>  <Molecular Complexity>
0.42796

>  <Electronegative Atoms>
6

>  <Stereo Centers>
0

>  <Rotatable Bonds>
8

>  <Rings Closures>
0

>  <Aromatic Rings>
0

>  <Aromatic Atoms>
0

>  <Amides>
0

>  <Amines>
0

>  <Aromatic Nitrogens>
0

>  <Shape Index 2>
0.6

>  <Molecular Flexibility 2>
0.77307

>  <Molecular Complexity 2>
0.42796

>  <Non-C/H Atoms>
6

>  <Electronegative Atoms 2>
6

>  <Stereo Centers 2>
0

>  <Rotatable Bonds 2>
8

>  <Rings Closures 2>
0

>  <Aromatic Rings 2>
0

>  <Aromatic Atoms 2>
0

>  <sp3-Atoms>
15

>  <Amides 2>
0

>  <Amines 2>
0

>  <Aromatic Nitrogens 2>
0

>  <Basic Nitrogens>
0

$$$$
Dimethoate
Actelion Java MolfileCreator 2.0

  0  0  0  0  0  0              0 V3000
M  V30 BEGIN CTAB
M  V30 COUNTS 12 11 0 0 0
M  V30 BEGIN ATOM
M  V30 1 S 0.0 0.0 0.0 0
M  V30 2 P -0.0117 1.5087 0.0 0
M  V30 3 S -1.3201 0.7661 0.0 0
M  V30 4 O 1.2729 0.7661 0.0 0
M  V30 5 O -0.0235 3.0174 0.0 0
M  V30 6 C -2.6284 1.5205 0.0 0
M  V30 7 C 2.5577 1.5205 0.0 0
M  V30 8 C 1.2611 3.7717 0.0 0
M  V30 9 C -3.9368 0.7779 0.0 0
M  V30 10 O -3.9485 -0.7072 0.0 0
M  V30 11 N -5.2451 1.5322 0.0 0
M  V30 12 C -6.5534 0.7897 0.0 0
M  V30 END ATOM
M  V30 BEGIN BOND
M  V30 1 2 1 2
M  V30 2 1 2 3
M  V30 3 1 2 4
M  V30 4 1 2 5
M  V30 5 1 3 6
M  V30 6 1 4 7
M  V30 7 1 5 8
M  V30 8 1 6 9
M  V30 9 2 9 10
M  V30 10 1 9 11
M  V30 11 1 11 12
M  V30 END BOND
M  V30 END CTAB
M  END
>  <Molecule Name>
Dimethoate

>  <Order (spectra)>
244

>  <NAME>
Dimethoate

>  <Molecular Formula>
C5H12NO3PS2

>  <Monoisotopic Mass>
228.999621

>  <SMILES>
CNC(=O)CSP(=S)(OC)OC

>  <InChI>
InChI=1S/C5H12NO3PS2/c1-6-5(7)4-12-10(11,8-2)9-3/h4H2,1-3H3,(H,6,7)

>  <InChIKey>
MCWXGJITAZMZEV-UHFFFAOYSA-N

>  <Kingdom>
Organic compounds

>  <Superclass>
Organic acids and derivatives

>  <Class>
Organic dithiophosphoric acids and derivatives

>  <Subclass>
Dithiophosphate O-esters

>  <Parent Level 1>
Dithiophosphate O-esters

>  <Parent Level 2>


>  <Parent Level 3>


>  <cLogP>
0.7321

>  <cLogS>
-1.726

>  <Druglikeness>
-0.64991

>  <NP-class probability>
0.49

>  <SmilesFragFp 3>


>  <MS_READY_SMILES>
CNC(=O)CSP(=S)(OC)OC

>  <MS_READY_InChI>
InChI=1S/C5H12NO3PS2/c1-6-5(7)4-12-10(11,8-2)9-3/h4H2,1-3H3,(H,6,7)

>  <QSAR_READY_SMILES>
CNC(=O)CSP(=S)(OC)OC

>  <QSAR_READY_InChI>
InChI=1S/C5H12NO3PS2/c1-6-5(7)4-12-10(11,8-2)9-3/h4H2,1-3H3,(H,6,7)

>  <DTXSID>
DTXSID7020479

>  <DTXCID>
DTXCID50479

>  <CASRN>
60-51-5

>  <EXPOCAST_MEDIAN_EXPOSURE_PREDICTION_MG/KG-BW/DAY>
1.25E-07

>  <BIOCONCENTRATION_FACTOR_TEST_PRED>
3.70681

>  <BOILING_POINT_DEGC_TEST_PRED>
-

>  <48HR_DAPHNIA_LC50_MOL/L_TEST_PRED>
2.82E-07

>  <DENSITY_G/CM^3_TEST_PRED>
1.255

>  <DEVTOX_TEST_PRED>
0.724

>  <96HR_FATHEAD_MINNOW_MOL/L_TEST_PRED>
4.54E-05

>  <FLASH_POINT_DEGC_TEST_PRED>
136.293

>  <MELTING_POINT_DEGC_TEST_PRED>
32.048

>  <AMES_MUTAGENICITY_TEST_PRED>
0.366

>  <ORAL_RAT_LD50_MOL/KG_TEST_PRED>
0.000465586

>  <SURFACE_TENSION_DYN/CM_TEST_PRED>
-

>  <THERMAL_CONDUCTIVITY_MW/(M*K)_TEST_PRED>
-

>  <TETRAHYMENA_PYRIFORMIS_IGC50_MOL/L_TEST_PRED>
-

>  <VISCOSITY_CP_CP_TEST_PRED>
-

>  <VAPOR_PRESSURE_MMHG_TEST_PRED>
2.48E-05

>  <WATER_SOLUBILITY_MOL/L_TEST_PRED>
0.0171002

>  <ATMOSPHERIC_HYDROXYLATION_RATE_(AOH)_CM3/MOLECULE*SEC_OPERA_PRED>
1.43E-11

>  <BIOCONCENTRATION_FACTOR_OPERA_PRED>
1.58793

>  <BIODEGRADATION_HALF_LIFE_DAYS_DAYS_OPERA_PRED>
82.443

>  <BOILING_POINT_DEGC_OPERA_PRED>
308.682

>  <HENRYS_LAW_ATM-M3/MOLE_OPERA_PRED>
2.06E-08

>  <OPERA_KM_DAYS_OPERA_PRED>
0.0977548

>  <OCTANOL_AIR_PARTITION_COEFF_LOGKOA_OPERA_PRED>
9.91783

>  <SOIL_ADSORPTION_COEFFICIENT_KOC_L/KG_OPERA_PRED>
15.8484

>  <OCTANOL_WATER_PARTITION_LOGP_OPERA_PRED>
0.780537

>  <MELTING_POINT_DEGC_OPERA_PRED>
51.9376

>  <VAPOR_PRESSURE_MMHG_OPERA_PRED>
1.87E-05

>  <WATER_SOLUBILITY_MOL/L_OPERA_PRED>
0.139206

>  <Shape Index>
0.66667

>  <Molecular Flexibility>
0.74866

>  <Molecular Complexity>
0.55452

>  <Electronegative Atoms>
7

>  <Stereo Centers>
0

>  <Rotatable Bonds>
5

>  <Rings Closures>
0

>  <Aromatic Rings>
0

>  <Aromatic Atoms>
0

>  <Amides>
1

>  <Amines>
0

>  <Aromatic Nitrogens>
0

>  <Shape Index 2>
0.66667

>  <Molecular Flexibility 2>
0.74866

>  <Molecular Complexity 2>
0.55452

>  <Non-C/H Atoms>
7

>  <Electronegative Atoms 2>
7

>  <Stereo Centers 2>
0

>  <Rotatable Bonds 2>
5

>  <Rings Closures 2>
0

>  <Aromatic Rings 2>
0

>  <Aromatic Atoms 2>
0

>  <sp3-Atoms>
9

>  <Amides 2>
1

>  <Amines 2>
0

>  <Aromatic Nitrogens 2>
0

>  <Basic Nitrogens>
0

$$$$
Endosulfan
Actelion Java MolfileCreator 2.0

  0  0  0  0  0  0              0 V3000
M  V30 BEGIN CTAB
M  V30 COUNTS 19 21 0 0 0
M  V30 BEGIN ATOM
M  V30 1 Cl 0.0 0.0 0.0 0
M  V30 2 C -1.2429 -0.7043 0.0 0
M  V30 3 C -2.5548 -0.1104 0.0 0
M  V30 4 C -1.4086 -2.1129 0.0 0
M  V30 5 Cl -2.8587 1.2981 0.0 0
M  V30 6 C -3.5215 -1.16 0.0 0
M  V30 7 Cl -0.0966 -2.6239 0.0 0
M  V30 8 C -2.8172 -2.3891 0.0 0
M  V30 9 C -2.3615 -3.6735 0.0 0
M  V30 10 Cl -4.8059 -0.5109 0.0 0
M  V30 11 C -4.0739 -2.9001 0.0 0
M  V30 12 Cl -4.0187 -3.4801 0.0 0
M  V30 13 Cl -2.8587 -3.9911 0.0 0
M  V30 14 C -2.251 -5.0407 0.0 0
M  V30 15 C -5.1926 -3.7149 0.0 0
M  V30 16 O -3.121 -6.1731 0.0 0
M  V30 17 O -5.4826 -5.0959 0.0 0
M  V30 18 S -4.5573 -6.2007 0.0 0
M  V30 19 O -5.1511 -7.4851 0.0 0
M  V30 END ATOM
M  V30 BEGIN BOND
M  V30 1 1 1 2
M  V30 2 2 2 3
M  V30 3 1 2 4
M  V30 4 1 3 5
M  V30 5 1 3 6
M  V30 6 1 4 7
M  V30 7 1 4 8
M  V30 8 1 4 9
M  V30 9 1 6 10
M  V30 10 1 6 11
M  V30 11 1 8 12
M  V30 12 1 8 13
M  V30 13 1 9 14
M  V30 14 1 11 15
M  V30 15 1 14 16
M  V30 16 1 15 17
M  V30 17 1 16 18
M  V30 18 2 18 19
M  V30 19 1 6 8
M  V30 20 1 9 11
M  V30 21 1 17 18
M  V30 END BOND
M  V30 END CTAB
M  END
>  <Molecule Name>
Endosulfan

>  <Order (spectra)>
157

>  <NAME>
Endosulfan

>  <Molecular Formula>
C9H6O3Cl6S

>  <Monoisotopic Mass>
403.816877

>  <SMILES>
ClC1=C(Cl)C2(Cl)C3COS(=O)OCC3C1(Cl)C2(Cl)Cl

>  <InChI>
InChI=1S/C9H6Cl6O3S/c10-5-6(11)8(13)4-2-18-19(16)17-1-3(4)7(5,12)9(8,14)15/h3-4H,1-2H2

>  <InChIKey>
RDYMFSUJUZBWLH-UHFFFAOYSA-N

>  <Kingdom>
Organic compounds

>  <Superclass>
Organic oxygen compounds

>  <Class>
Organic oxoanionic compounds

>  <Subclass>
Organic sulfites

>  <Parent Level 1>
Sulfite esters

>  <Parent Level 2>


>  <Parent Level 3>


>  <cLogP>
4.1152

>  <cLogS>
-6.545

>  <Druglikeness>
-1.0005

>  <NP-class probability>
0.42

>  <SmilesFragFp 3>


>  <MS_READY_SMILES>
ClC1=C(Cl)C2(Cl)C3COS(=O)OCC3C1(Cl)C2(Cl)Cl

>  <MS_READY_InChI>
InChI=1S/C9H6Cl6O3S/c10-5-6(11)8(13)4-2-18-19(16)17-1-3(4)7(5,12)9(8,14)15/h3-4H,1-2H2

>  <QSAR_READY_SMILES>
ClC1=C(Cl)C2(Cl)C3COS(=O)OCC3C1(Cl)C2(Cl)Cl

>  <QSAR_READY_InChI>
InChI=1S/C9H6Cl6O3S/c10-5-6(11)8(13)4-2-18-19(16)17-1-3(4)7(5,12)9(8,14)15/h3-4H,1-2H2

>  <DTXSID>
DTXSID1020560

>  <DTXCID>
DTXCID70560

>  <CASRN>
115-29-7

>  <EXPOCAST_MEDIAN_EXPOSURE_PREDICTION_MG/KG-BW/DAY>
5.75E-10

>  <BIOCONCENTRATION_FACTOR_TEST_PRED>
-

>  <BOILING_POINT_DEGC_TEST_PRED>
318.635

>  <48HR_DAPHNIA_LC50_MOL/L_TEST_PRED>
4.40E-06

>  <DENSITY_G/CM^3_TEST_PRED>
1.81

>  <DEVTOX_TEST_PRED>
0.484

>  <96HR_FATHEAD_MINNOW_MOL/L_TEST_PRED>
4.71E-07

>  <FLASH_POINT_DEGC_TEST_PRED>
226.687

>  <MELTING_POINT_DEGC_TEST_PRED>
90.389

>  <AMES_MUTAGENICITY_TEST_PRED>
-

>  <ORAL_RAT_LD50_MOL/KG_TEST_PRED>
0.000445656

>  <SURFACE_TENSION_DYN/CM_TEST_PRED>
-

>  <THERMAL_CONDUCTIVITY_MW/(M*K)_TEST_PRED>
-

>  <TETRAHYMENA_PYRIFORMIS_IGC50_MOL/L_TEST_PRED>
-

>  <VISCOSITY_CP_CP_TEST_PRED>
-

>  <VAPOR_PRESSURE_MMHG_TEST_PRED>
5.98E-07

>  <WATER_SOLUBILITY_MOL/L_TEST_PRED>
7.21E-06

>  <ATMOSPHERIC_HYDROXYLATION_RATE_(AOH)_CM3/MOLECULE*SEC_OPERA_PRED>
7.30E-12

>  <BIOCONCENTRATION_FACTOR_OPERA_PRED>
3.9244

>  <BIODEGRADATION_HALF_LIFE_DAYS_DAYS_OPERA_PRED>
15.8443

>  <BOILING_POINT_DEGC_OPERA_PRED>
364.832

>  <HENRYS_LAW_ATM-M3/MOLE_OPERA_PRED>
2.42E-05

>  <OPERA_KM_DAYS_OPERA_PRED>
5.4492

>  <OCTANOL_AIR_PARTITION_COEFF_LOGKOA_OPERA_PRED>
8.81202

>  <SOIL_ADSORPTION_COEFFICIENT_KOC_L/KG_OPERA_PRED>
12875

>  <OCTANOL_WATER_PARTITION_LOGP_OPERA_PRED>
3.82812

>  <MELTING_POINT_DEGC_OPERA_PRED>
106.051

>  <VAPOR_PRESSURE_MMHG_OPERA_PRED>
1.73E-07

>  <WATER_SOLUBILITY_MOL/L_OPERA_PRED>
1.01E-06

>  <Shape Index>
0.42105

>  <Molecular Flexibility>
0.23103

>  <Molecular Complexity>
0.98923

>  <Electronegative Atoms>
10

>  <Stereo Centers>
4

>  <Rotatable Bonds>
0

>  <Rings Closures>
3

>  <Aromatic Rings>
0

>  <Aromatic Atoms>
0

>  <Amides>
0

>  <Amines>
0

>  <Aromatic Nitrogens>
0

>  <Shape Index 2>
0.42105

>  <Molecular Flexibility 2>
0.23103

>  <Molecular Complexity 2>
0.98923

>  <Non-C/H Atoms>
10

>  <Electronegative Atoms 2>
10

>  <Stereo Centers 2>
4

>  <Rotatable Bonds 2>
0

>  <Rings Closures 2>
3

>  <Aromatic Rings 2>
0

>  <Aromatic Atoms 2>
0

>  <sp3-Atoms>
10

>  <Amides 2>
0

>  <Amines 2>
0

>  <Aromatic Nitrogens 2>
0

>  <Basic Nitrogens>
0

$$$$
Tris(4-tert-butylphenyl) phosphate
Actelion Java MolfileCreator 2.0

  0  0  0  0  0  0              0 V3000
M  V30 BEGIN CTAB
M  V30 COUNTS 35 37 0 0 0
M  V30 BEGIN ATOM
M  V30 1 P 0.0 0.0 0.0 0
M  V30 2 O 1.2889 -0.7331 0.0 0
M  V30 3 O 1.2889 0.7568 0.0 0
M  V30 4 O -0.0118 -1.4899 0.0 0
M  V30 5 O -1.3125 0.7568 0.0 0
M  V30 6 C 2.5778 0.0236 0.0 0
M  V30 7 C -1.3244 -2.2231 0.0 0
M  V30 8 C -1.3244 2.2704 0.0 0
M  V30 9 C 2.566 -1.4663 0.0 0
M  V30 10 C 3.8668 0.7804 0.0 0
M  V30 11 C -2.637 -1.4663 0.0 0
M  V30 12 C -1.3362 -3.713 0.0 0
M  V30 13 C -2.637 3.0272 0.0 0
M  V30 14 C -0.0354 3.039 0.0 0
M  V30 15 C 3.8549 -2.1994 0.0 0
M  V30 16 C 5.1557 0.0473 0.0 0
M  V30 17 C -3.9495 -2.1994 0.0 0
M  V30 18 C -2.6488 -4.4462 0.0 0
M  V30 19 C -2.6488 4.5408 0.0 0
M  V30 20 C -0.0473 4.5526 0.0 0
M  V30 21 C 5.1439 -1.4426 0.0 0
M  V30 22 C -3.9614 -3.6894 0.0 0
M  V30 23 C -1.3598 5.3094 0.0 0
M  V30 24 C 6.4328 -2.1758 0.0 0
M  V30 25 C -5.274 -4.4226 0.0 0
M  V30 26 C -1.3717 6.8231 0.0 0
M  V30 27 C 7.166 -0.8632 0.0 0
M  V30 28 C 7.7218 -2.9089 0.0 0
M  V30 29 C 5.676 -3.4647 0.0 0
M  V30 30 C -4.5408 -5.7115 0.0 0
M  V30 31 C -6.5866 -5.1557 0.0 0
M  V30 32 C -6.0426 -3.11 0.0 0
M  V30 33 C 0.1182 6.8349 0.0 0
M  V30 34 C -1.3835 8.3367 0.0 0
M  V30 35 C -2.8853 6.8349 0.0 0
M  V30 END ATOM
M  V30 BEGIN BOND
M  V30 1 2 1 2
M  V30 2 1 1 3
M  V30 3 1 1 4
M  V30 4 1 1 5
M  V30 5 1 3 6
M  V30 6 1 4 7
M  V30 7 1 5 8
M  V30 8 2 6 9
M  V30 9 1 6 10
M  V30 10 2 7 11
M  V30 11 1 7 12
M  V30 12 2 8 13
M  V30 13 1 8 14
M  V30 14 1 9 15
M  V30 15 2 10 16
M  V30 16 1 11 17
M  V30 17 2 12 18
M  V30 18 1 13 19
M  V30 19 2 14 20
M  V30 20 2 15 21
M  V30 21 2 17 22
M  V30 22 2 19 23
M  V30 23 1 21 24
M  V30 24 1 22 25
M  V30 25 1 23 26
M  V30 26 1 24 27
M  V30 27 1 24 28
M  V30 28 1 24 29
M  V30 29 1 25 30
M  V30 30 1 25 31
M  V30 31 1 25 32
M  V30 32 1 26 33
M  V30 33 1 26 34
M  V30 34 1 26 35
M  V30 35 1 16 21
M  V30 36 1 18 22
M  V30 37 1 20 23
M  V30 END BOND
M  V30 END CTAB
M  END
>  <Molecule Name>
Tris(4-tert-butylphenyl) phosphate

>  <Order (spectra)>
170

>  <NAME>
Tris(4-tert-butylphenyl) phosphate

>  <Molecular Formula>
C30H39O4P

>  <Monoisotopic Mass>
494.258597

>  <SMILES>
CC(C)(C)C1=CC=C(OP(=O)(OC2=CC=C(C=C2)C(C)(C)C)OC2=CC=C(C=C2)C(C)(C)C)C=C1

>  <InChI>
InChI=1S/C30H39O4P/c1-28(2,3)22-10-16-25(17-11-22)32-35(31,33-26-18-12-23(13-19-26)29(4,5)6)34-27-20-14-24(15-21-27)30(7,8)9/h10-21H,1-9H3

>  <InChIKey>
LORSVOJSXMHDHF-UHFFFAOYSA-N

>  <Kingdom>
Organic compounds

>  <Superclass>
Organic acids and derivatives

>  <Class>
Organic phosphoric acids and derivatives

>  <Subclass>
Phosphate esters

>  <Parent Level 1>
Aryl phosphates

>  <Parent Level 2>
Aryl phosphotriesters

>  <Parent Level 3>


>  <cLogP>
9.031

>  <cLogS>
-8.026

>  <Druglikeness>
-21.384

>  <NP-class probability>
0.32

>  <SmilesFragFp 3>


>  <MS_READY_SMILES>
CC(C)(C)C1=CC=C(OP(=O)(OC2=CC=C(C=C2)C(C)(C)C)OC2=CC=C(C=C2)C(C)(C)C)C=C1

>  <MS_READY_InChI>
InChI=1S/C30H39O4P/c1-28(2,3)22-10-16-25(17-11-22)32-35(31,33-26-18-12-23(13-19-26)29(4,5)6)34-27-20-14-24(15-21-27)30(7,8)9/h10-21H,1-9H3

>  <QSAR_READY_SMILES>
CC(C)(C)C1=CC=C(OP(=O)(OC2=CC=C(C=C2)C(C)(C)C)OC2=CC=C(C=C2)C(C)(C)C)C=C1

>  <QSAR_READY_InChI>
InChI=1S/C30H39O4P/c1-28(2,3)22-10-16-25(17-11-22)32-35(31,33-26-18-12-23(13-19-26)29(4,5)6)34-27-20-14-24(15-21-27)30(7,8)9/h10-21H,1-9H3

>  <DTXSID>
DTXSID3051466

>  <DTXCID>
DTXCID709866

>  <CASRN>
78-33-1

>  <EXPOCAST_MEDIAN_EXPOSURE_PREDICTION_MG/KG-BW/DAY>
9.85E-05

>  <BIOCONCENTRATION_FACTOR_TEST_PRED>
864.968

>  <BOILING_POINT_DEGC_TEST_PRED>
428.154

>  <48HR_DAPHNIA_LC50_MOL/L_TEST_PRED>
9.86E-09

>  <DENSITY_G/CM^3_TEST_PRED>
1.048

>  <DEVTOX_TEST_PRED>
0.779

>  <96HR_FATHEAD_MINNOW_MOL/L_TEST_PRED>
1.82E-07

>  <FLASH_POINT_DEGC_TEST_PRED>
251.991

>  <MELTING_POINT_DEGC_TEST_PRED>
57.715

>  <AMES_MUTAGENICITY_TEST_PRED>
0.13

>  <ORAL_RAT_LD50_MOL/KG_TEST_PRED>
-

>  <SURFACE_TENSION_DYN/CM_TEST_PRED>
-

>  <THERMAL_CONDUCTIVITY_MW/(M*K)_TEST_PRED>
-

>  <TETRAHYMENA_PYRIFORMIS_IGC50_MOL/L_TEST_PRED>
-

>  <VISCOSITY_CP_CP_TEST_PRED>
-

>  <VAPOR_PRESSURE_MMHG_TEST_PRED>
6.59E-08

>  <WATER_SOLUBILITY_MOL/L_TEST_PRED>
1.42E-07

>  <ATMOSPHERIC_HYDROXYLATION_RATE_(AOH)_CM3/MOLECULE*SEC_OPERA_PRED>
2.86E-11

>  <BIOCONCENTRATION_FACTOR_OPERA_PRED>
7097.34

>  <BIODEGRADATION_HALF_LIFE_DAYS_DAYS_OPERA_PRED>
4.22752

>  <BOILING_POINT_DEGC_OPERA_PRED>
434.718

>  <HENRYS_LAW_ATM-M3/MOLE_OPERA_PRED>
4.41E-07

>  <OPERA_KM_DAYS_OPERA_PRED>
6.08117

>  <OCTANOL_AIR_PARTITION_COEFF_LOGKOA_OPERA_PRED>
11.6783

>  <SOIL_ADSORPTION_COEFFICIENT_KOC_L/KG_OPERA_PRED>
96828.1

>  <OCTANOL_WATER_PARTITION_LOGP_OPERA_PRED>
8.58554

>  <MELTING_POINT_DEGC_OPERA_PRED>
52.949

>  <VAPOR_PRESSURE_MMHG_OPERA_PRED>
6.00E-09

>  <WATER_SOLUBILITY_MOL/L_OPERA_PRED>
1.75E-07

>  <Shape Index>
0.42857

>  <Molecular Flexibility>
0.64539

>  <Molecular Complexity>
0.67534

>  <Electronegative Atoms>
5

>  <Stereo Centers>
0

>  <Rotatable Bonds>
9

>  <Rings Closures>
3

>  <Aromatic Rings>
3

>  <Aromatic Atoms>
18

>  <Amides>
0

>  <Amines>
0

>  <Aromatic Nitrogens>
0

>  <Shape Index 2>
0.42857

>  <Molecular Flexibility 2>
0.64539

>  <Molecular Complexity 2>
0.67534

>  <Non-C/H Atoms>
5

>  <Electronegative Atoms 2>
5

>  <Stereo Centers 2>
0

>  <Rotatable Bonds 2>
9

>  <Rings Closures 2>
3

>  <Aromatic Rings 2>
3

>  <Aromatic Atoms 2>
18

>  <sp3-Atoms>
16

>  <Amides 2>
0

>  <Amines 2>
0

>  <Aromatic Nitrogens 2>
0

>  <Basic Nitrogens>
0

$$$$
Tri-n-butyl-phosphate
Actelion Java MolfileCreator 2.0

  0  0  0  0  0  0              0 V3000
M  V30 BEGIN CTAB
M  V30 COUNTS 17 16 0 0 0
M  V30 BEGIN ATOM
M  V30 1 P 0.0 0.0 0.0 0
M  V30 2 O -0.0118 -1.49 0.0 0
M  V30 3 O 1.2889 -0.7331 0.0 0
M  V30 4 O -0.0118 1.5136 0.0 0
M  V30 5 O -1.3126 -0.7331 0.0 0
M  V30 6 C 2.5779 0.0236 0.0 0
M  V30 7 C 1.2771 2.2705 0.0 0
M  V30 8 C -2.6252 0.0236 0.0 0
M  V30 9 C 3.8669 -0.7095 0.0 0
M  V30 10 C 1.2653 3.7841 0.0 0
M  V30 11 C -3.9379 -0.7095 0.0 0
M  V30 12 C 5.1559 0.0473 0.0 0
M  V30 13 C 2.5543 4.541 0.0 0
M  V30 14 C -5.2505 0.0473 0.0 0
M  V30 15 C 6.4449 -0.6858 0.0 0
M  V30 16 C 2.5425 6.0547 0.0 0
M  V30 17 C -6.5632 -0.6858 0.0 0
M  V30 END ATOM
M  V30 BEGIN BOND
M  V30 1 2 1 2
M  V30 2 1 1 3
M  V30 3 1 1 4
M  V30 4 1 1 5
M  V30 5 1 3 6
M  V30 6 1 4 7
M  V30 7 1 5 8
M  V30 8 1 6 9
M  V30 9 1 7 10
M  V30 10 1 8 11
M  V30 11 1 9 12
M  V30 12 1 10 13
M  V30 13 1 11 14
M  V30 14 1 12 15
M  V30 15 1 13 16
M  V30 16 1 14 17
M  V30 END BOND
M  V30 END CTAB
M  END
>  <Molecule Name>
Tri-n-butyl-phosphate

>  <Order (spectra)>
171

>  <NAME>
Tri-n-butyl-phosphate

>  <Molecular Formula>
C12H27O4P

>  <Monoisotopic Mass>
266.164697

>  <SMILES>
CCCCOP(=O)(OCCCC)OCCCC

>  <InChI>
InChI=1S/C12H27O4P/c1-4-7-10-14-17(13,15-11-8-5-2)16-12-9-6-3/h4-12H2,1-3H3

>  <InChIKey>
STCOOQWBFONSKY-UHFFFAOYSA-N

>  <Kingdom>
Organic compounds

>  <Superclass>
Organic acids and derivatives

>  <Class>
Organic phosphoric acids and derivatives

>  <Subclass>
Phosphate esters

>  <Parent Level 1>
Alkyl phosphates

>  <Parent Level 2>
Trialkyl phosphates

>  <Parent Level 3>


>  <cLogP>
3.2251

>  <cLogS>
-2.227

>  <Druglikeness>
-22.281

>  <NP-class probability>
0.28

>  <SmilesFragFp 3>


>  <MS_READY_SMILES>
CCCCOP(=O)(OCCCC)OCCCC

>  <MS_READY_InChI>
InChI=1S/C12H27O4P/c1-4-7-10-14-17(13,15-11-8-5-2)16-12-9-6-3/h4-12H2,1-3H3

>  <QSAR_READY_SMILES>
CCCCOP(=O)(OCCCC)OCCCC

>  <QSAR_READY_InChI>
InChI=1S/C12H27O4P/c1-4-7-10-14-17(13,15-11-8-5-2)16-12-9-6-3/h4-12H2,1-3H3

>  <DTXSID>
DTXSID3021986

>  <DTXCID>
DTXCID701986

>  <CASRN>
126-73-8

>  <EXPOCAST_MEDIAN_EXPOSURE_PREDICTION_MG/KG-BW/DAY>
1.78E-05

>  <BIOCONCENTRATION_FACTOR_TEST_PRED>
8.26038

>  <BOILING_POINT_DEGC_TEST_PRED>
281.321

>  <48HR_DAPHNIA_LC50_MOL/L_TEST_PRED>
1.08E-07

>  <DENSITY_G/CM^3_TEST_PRED>
0.99

>  <DEVTOX_TEST_PRED>
0.354

>  <96HR_FATHEAD_MINNOW_MOL/L_TEST_PRED>
2.70E-05

>  <FLASH_POINT_DEGC_TEST_PRED>
162.615

>  <MELTING_POINT_DEGC_TEST_PRED>
-59.452

>  <AMES_MUTAGENICITY_TEST_PRED>
0.08

>  <ORAL_RAT_LD50_MOL/KG_TEST_PRED>
0.0151705

>  <SURFACE_TENSION_DYN/CM_TEST_PRED>
28.548

>  <THERMAL_CONDUCTIVITY_MW/(M*K)_TEST_PRED>
147.733

>  <TETRAHYMENA_PYRIFORMIS_IGC50_MOL/L_TEST_PRED>
0.00074131

>  <VISCOSITY_CP_CP_TEST_PRED>
4.87528

>  <VAPOR_PRESSURE_MMHG_TEST_PRED>
0.000174985

>  <WATER_SOLUBILITY_MOL/L_TEST_PRED>
0.00312608

>  <ATMOSPHERIC_HYDROXYLATION_RATE_(AOH)_CM3/MOLECULE*SEC_OPERA_PRED>
1.85E-11

>  <BIOCONCENTRATION_FACTOR_OPERA_PRED>
29.5118

>  <BIODEGRADATION_HALF_LIFE_DAYS_DAYS_OPERA_PRED>
3.67991

>  <BOILING_POINT_DEGC_OPERA_PRED>
288.948

>  <HENRYS_LAW_ATM-M3/MOLE_OPERA_PRED>
1.12E-06

>  <OPERA_KM_DAYS_OPERA_PRED>
0.173818

>  <OCTANOL_AIR_PARTITION_COEFF_LOGKOA_OPERA_PRED>
7.877

>  <SOIL_ADSORPTION_COEFFICIENT_KOC_L/KG_OPERA_PRED>
264.326

>  <OCTANOL_WATER_PARTITION_LOGP_OPERA_PRED>
3.99711

>  <MELTING_POINT_DEGC_OPERA_PRED>
-78.919

>  <VAPOR_PRESSURE_MMHG_OPERA_PRED>
0.00113583

>  <WATER_SOLUBILITY_MOL/L_OPERA_PRED>
0.00105481

>  <Shape Index>
0.64706

>  <Molecular Flexibility>
0.80389

>  <Molecular Complexity>
0.37701

>  <Electronegative Atoms>
5

>  <Stereo Centers>
0

>  <Rotatable Bonds>
12

>  <Rings Closures>
0

>  <Aromatic Rings>
0

>  <Aromatic Atoms>
0

>  <Amides>
0

>  <Amines>
0

>  <Aromatic Nitrogens>
0

>  <Shape Index 2>
0.64706

>  <Molecular Flexibility 2>
0.80389

>  <Molecular Complexity 2>
0.37701

>  <Non-C/H Atoms>
5

>  <Electronegative Atoms 2>
5

>  <Stereo Centers 2>
0

>  <Rotatable Bonds 2>
12

>  <Rings Closures 2>
0

>  <Aromatic Rings 2>
0

>  <Aromatic Atoms 2>
0

>  <sp3-Atoms>
16

>  <Amides 2>
0

>  <Amines 2>
0

>  <Aromatic Nitrogens 2>
0

>  <Basic Nitrogens>
0

$$$$
Tris(1,3-dichloro-2-propyl)phosphate
Actelion Java MolfileCreator 2.0

  0  0  0  0  0  0              0 V3000
M  V30 BEGIN CTAB
M  V30 COUNTS 20 19 0 0 0
M  V30 BEGIN ATOM
M  V30 1 Cl 0.0 0.0 0.0 0
M  V30 2 C -0.0118 -1.4878 0.0 0
M  V30 3 C -1.3225 -2.2317 0.0 0
M  V30 4 O -1.3343 -3.7196 0.0 0
M  V30 5 C -2.6332 -1.476 0.0 0
M  V30 6 P -2.645 -4.4517 0.0 0
M  V30 7 Cl -2.645 0.0354 0.0 0
M  V30 8 O -2.6568 -2.9402 0.0 0
M  V30 9 O -2.6568 -5.9395 0.0 0
M  V30 10 O -3.9557 -3.6959 0.0 0
M  V30 11 C -1.3697 -6.6716 0.0 0
M  V30 12 C -5.2664 -4.4281 0.0 0
M  V30 13 C -0.0826 -5.9159 0.0 0
M  V30 14 C -1.3815 -8.1595 0.0 0
M  V30 15 C -5.2783 -5.9159 0.0 0
M  V30 16 C -6.5772 -3.6723 0.0 0
M  V30 17 Cl -0.0944 -4.4044 0.0 0
M  V30 18 Cl -2.6922 -8.8916 0.0 0
M  V30 19 Cl -6.589 -6.648 0.0 0
M  V30 20 Cl -7.8879 -4.4044 0.0 0
M  V30 END ATOM
M  V30 BEGIN BOND
M  V30 1 1 1 2
M  V30 2 1 2 3
M  V30 3 1 3 4
M  V30 4 1 3 5
M  V30 5 1 4 6
M  V30 6 1 5 7
M  V30 7 2 6 8
M  V30 8 1 6 9
M  V30 9 1 6 10
M  V30 10 1 9 11
M  V30 11 1 10 12
M  V30 12 1 11 13
M  V30 13 1 11 14
M  V30 14 1 12 15
M  V30 15 1 12 16
M  V30 16 1 13 17
M  V30 17 1 14 18
M  V30 18 1 15 19
M  V30 19 1 16 20
M  V30 END BOND
M  V30 END CTAB
M  END
>  <Molecule Name>
Tris(1,3-dichloro-2-propyl)phosphate

>  <Order (spectra)>
172

>  <NAME>
Tris(1,3-dichloro-2-propyl)phosphate

>  <Molecular Formula>
C9H15O4Cl6P

>  <Monoisotopic Mass>
427.883909

>  <SMILES>
ClCC(CCl)OP(=O)(OC(CCl)CCl)OC(CCl)CCl

>  <InChI>
InChI=1S/C9H15Cl6O4P/c10-1-7(2-11)17-20(16,18-8(3-12)4-13)19-9(5-14)6-15/h7-9H,1-6H2

>  <InChIKey>
ASLWPAWFJZFCKF-UHFFFAOYSA-N

>  <Kingdom>
Organic compounds

>  <Superclass>
Organic acids and derivatives

>  <Class>
Organic phosphoric acids and derivatives

>  <Subclass>
Phosphate esters

>  <Parent Level 1>
Alkyl phosphates

>  <Parent Level 2>
Trialkyl phosphates

>  <Parent Level 3>


>  <cLogP>
2.9524

>  <cLogS>
-4.147

>  <Druglikeness>
-18.826

>  <NP-class probability>
0.63

>  <SmilesFragFp 3>


>  <MS_READY_SMILES>
ClCC(CCl)OP(=O)(OC(CCl)CCl)OC(CCl)CCl

>  <MS_READY_InChI>
InChI=1S/C9H15Cl6O4P/c10-1-7(2-11)17-20(16,18-8(3-12)4-13)19-9(5-14)6-15/h7-9H,1-6H2

>  <QSAR_READY_SMILES>
ClCC(CCl)OP(=O)(OC(CCl)CCl)OC(CCl)CCl

>  <QSAR_READY_InChI>
InChI=1S/C9H15Cl6O4P/c10-1-7(2-11)17-20(16,18-8(3-12)4-13)19-9(5-14)6-15/h7-9H,1-6H2

>  <DTXSID>
DTXSID9026261

>  <DTXCID>
DTXCID206261

>  <CASRN>
13674-87-8

>  <EXPOCAST_MEDIAN_EXPOSURE_PREDICTION_MG/KG-BW/DAY>
1.75E-07

>  <BIOCONCENTRATION_FACTOR_TEST_PRED>
14.9279

>  <BOILING_POINT_DEGC_TEST_PRED>
373.105

>  <48HR_DAPHNIA_LC50_MOL/L_TEST_PRED>
1.88E-08

>  <DENSITY_G/CM^3_TEST_PRED>
1.55

>  <DEVTOX_TEST_PRED>
0.546

>  <96HR_FATHEAD_MINNOW_MOL/L_TEST_PRED>
1.28E-06

>  <FLASH_POINT_DEGC_TEST_PRED>
214.568

>  <MELTING_POINT_DEGC_TEST_PRED>
12.516

>  <AMES_MUTAGENICITY_TEST_PRED>
0.601

>  <ORAL_RAT_LD50_MOL/KG_TEST_PRED>
0.00452898

>  <SURFACE_TENSION_DYN/CM_TEST_PRED>
44.761

>  <THERMAL_CONDUCTIVITY_MW/(M*K)_TEST_PRED>
133.074

>  <TETRAHYMENA_PYRIFORMIS_IGC50_MOL/L_TEST_PRED>
-

>  <VISCOSITY_CP_CP_TEST_PRED>
8.57038

>  <VAPOR_PRESSURE_MMHG_TEST_PRED>
1.64E-05

>  <WATER_SOLUBILITY_MOL/L_TEST_PRED>
8.81E-05

>  <ATMOSPHERIC_HYDROXYLATION_RATE_(AOH)_CM3/MOLECULE*SEC_OPERA_PRED>
2.33E-11

>  <BIOCONCENTRATION_FACTOR_OPERA_PRED>
12.0292

>  <BIODEGRADATION_HALF_LIFE_DAYS_DAYS_OPERA_PRED>
4.076

>  <BOILING_POINT_DEGC_OPERA_PRED>
313.296

>  <HENRYS_LAW_ATM-M3/MOLE_OPERA_PRED>
9.15E-07

>  <OPERA_KM_DAYS_OPERA_PRED>
0.302002

>  <OCTANOL_AIR_PARTITION_COEFF_LOGKOA_OPERA_PRED>
10.2681

>  <SOIL_ADSORPTION_COEFFICIENT_KOC_L/KG_OPERA_PRED>
344.97

>  <OCTANOL_WATER_PARTITION_LOGP_OPERA_PRED>
3.65041

>  <MELTING_POINT_DEGC_OPERA_PRED>
26.9153

>  <VAPOR_PRESSURE_MMHG_OPERA_PRED>
5.26E-06

>  <WATER_SOLUBILITY_MOL/L_OPERA_PRED>
1.65E-05

>  <Shape Index>
0.45

>  <Molecular Flexibility>
0.75772

>  <Molecular Complexity>
0.57758

>  <Electronegative Atoms>
11

>  <Stereo Centers>
0

>  <Rotatable Bonds>
12

>  <Rings Closures>
0

>  <Aromatic Rings>
0

>  <Aromatic Atoms>
0

>  <Amides>
0

>  <Amines>
0

>  <Aromatic Nitrogens>
0

>  <Shape Index 2>
0.45

>  <Molecular Flexibility 2>
0.75772

>  <Molecular Complexity 2>
0.57758

>  <Non-C/H Atoms>
11

>  <Electronegative Atoms 2>
11

>  <Stereo Centers 2>
0

>  <Rotatable Bonds 2>
12

>  <Rings Closures 2>
0

>  <Aromatic Rings 2>
0

>  <Aromatic Atoms 2>
0

>  <sp3-Atoms>
13

>  <Amides 2>
0

>  <Amines 2>
0

>  <Aromatic Nitrogens 2>
0

>  <Basic Nitrogens>
0

$$$$
Tri-o-cresyl phosphate
Actelion Java MolfileCreator 2.0

  0  0  0  0  0  0              0 V3000
M  V30 BEGIN CTAB
M  V30 COUNTS 26 28 0 0 0
M  V30 BEGIN ATOM
M  V30 1 P 0.0 0.0 0.0 0
M  V30 2 O 1.2892 -0.7333 0.0 0
M  V30 3 O 1.2892 0.7569 0.0 0
M  V30 4 O -0.0118 -1.4903 0.0 0
M  V30 5 O -1.3129 0.7569 0.0 0
M  V30 6 C 2.5785 0.0236 0.0 0
M  V30 7 C -1.3247 -2.2236 0.0 0
M  V30 8 C -1.3247 2.2709 0.0 0
M  V30 9 C 2.5666 -1.4666 0.0 0
M  V30 10 C 3.8677 0.7806 0.0 0
M  V30 11 C -1.3365 -3.714 0.0 0
M  V30 12 C -2.6376 -1.4666 0.0 0
M  V30 13 C -2.6376 3.0279 0.0 0
M  V30 14 C -0.0354 3.0398 0.0 0
M  V30 15 C 3.8559 -2.2 0.0 0
M  V30 16 C 1.2537 -2.2 0.0 0
M  V30 17 C 5.157 0.0473 0.0 0
M  V30 18 C -2.6494 -4.4591 0.0 0
M  V30 19 C -0.0473 -4.4473 0.0 0
M  V30 20 C -3.9505 -2.2 0.0 0
M  V30 21 C -2.6494 4.5419 0.0 0
M  V30 22 C -3.9505 2.2946 0.0 0
M  V30 23 C -0.0473 4.5537 0.0 0
M  V30 24 C 5.1451 -1.443 0.0 0
M  V30 25 C -3.9623 -3.7021 0.0 0
M  V30 26 C -1.3602 5.2989 0.0 0
M  V30 END ATOM
M  V30 BEGIN BOND
M  V30 1 2 1 2
M  V30 2 1 1 3
M  V30 3 1 1 4
M  V30 4 1 1 5
M  V30 5 1 3 6
M  V30 6 1 4 7
M  V30 7 1 5 8
M  V30 8 2 6 9
M  V30 9 1 6 10
M  V30 10 2 7 11
M  V30 11 1 7 12
M  V30 12 2 8 13
M  V30 13 1 8 14
M  V30 14 1 9 15
M  V30 15 1 9 16
M  V30 16 2 10 17
M  V30 17 1 11 18
M  V30 18 1 11 19
M  V30 19 2 12 20
M  V30 20 1 13 21
M  V30 21 1 13 22
M  V30 22 2 14 23
M  V30 23 2 15 24
M  V30 24 2 18 25
M  V30 25 2 21 26
M  V30 26 1 17 24
M  V30 27 1 20 25
M  V30 28 1 23 26
M  V30 END BOND
M  V30 END CTAB
M  END
>  <Molecule Name>
Tri-o-cresyl phosphate

>  <Order (spectra)>
173

>  <NAME>
Tri-o-cresyl phosphate

>  <Molecular Formula>
C21H21O4P

>  <Monoisotopic Mass>
368.117747

>  <SMILES>
CC1=C(OP(=O)(OC2=C(C)C=CC=C2)OC2=C(C)C=CC=C2)C=CC=C1

>  <InChI>
InChI=1S/C21H21O4P/c1-16-10-4-7-13-19(16)23-26(22,24-20-14-8-5-11-17(20)2)25-21-15-9-6-12-18(21)3/h4-15H,1-3H3

>  <InChIKey>
YSMRWXYRXBRSND-UHFFFAOYSA-N

>  <Kingdom>
Organic compounds

>  <Superclass>
Organic acids and derivatives

>  <Class>
Organic phosphoric acids and derivatives

>  <Subclass>
Phosphate esters

>  <Parent Level 1>
Aryl phosphates

>  <Parent Level 2>
Aryl phosphotriesters

>  <Parent Level 3>


>  <cLogP>
5.317

>  <cLogS>
-5.578

>  <Druglikeness>
-18.505

>  <NP-class probability>
0.39

>  <SmilesFragFp 3>


>  <MS_READY_SMILES>
CC1=C(OP(=O)(OC2=C(C)C=CC=C2)OC2=C(C)C=CC=C2)C=CC=C1

>  <MS_READY_InChI>
InChI=1S/C21H21O4P/c1-16-10-4-7-13-19(16)23-26(22,24-20-14-8-5-11-17(20)2)25-21-15-9-6-12-18(21)3/h4-15H,1-3H3

>  <QSAR_READY_SMILES>
CC1=C(OP(=O)(OC2=C(C)C=CC=C2)OC2=C(C)C=CC=C2)C=CC=C1

>  <QSAR_READY_InChI>
InChI=1S/C21H21O4P/c1-16-10-4-7-13-19(16)23-26(22,24-20-14-8-5-11-17(20)2)25-21-15-9-6-12-18(21)3/h4-15H,1-3H3

>  <DTXSID>
DTXSID6032192

>  <DTXCID>
DTXCID4012192

>  <CASRN>
78-30-8

>  <EXPOCAST_MEDIAN_EXPOSURE_PREDICTION_MG/KG-BW/DAY>
9.46E-07

>  <BIOCONCENTRATION_FACTOR_TEST_PRED>
83.5603

>  <BOILING_POINT_DEGC_TEST_PRED>
405.503

>  <48HR_DAPHNIA_LC50_MOL/L_TEST_PRED>
1.10E-07

>  <DENSITY_G/CM^3_TEST_PRED>
1.17

>  <DEVTOX_TEST_PRED>
0.488

>  <96HR_FATHEAD_MINNOW_MOL/L_TEST_PRED>
6.46E-07

>  <FLASH_POINT_DEGC_TEST_PRED>
229.118

>  <MELTING_POINT_DEGC_TEST_PRED>
74.52

>  <AMES_MUTAGENICITY_TEST_PRED>
0.085

>  <ORAL_RAT_LD50_MOL/KG_TEST_PRED>
0.00737904

>  <SURFACE_TENSION_DYN/CM_TEST_PRED>
-

>  <THERMAL_CONDUCTIVITY_MW/(M*K)_TEST_PRED>
-

>  <TETRAHYMENA_PYRIFORMIS_IGC50_MOL/L_TEST_PRED>
1.28E-05

>  <VISCOSITY_CP_CP_TEST_PRED>
38.5478

>  <VAPOR_PRESSURE_MMHG_TEST_PRED>
6.11E-07

>  <WATER_SOLUBILITY_MOL/L_TEST_PRED>
1.84E-06

>  <ATMOSPHERIC_HYDROXYLATION_RATE_(AOH)_CM3/MOLECULE*SEC_OPERA_PRED>
1.65E-11

>  <BIOCONCENTRATION_FACTOR_OPERA_PRED>
292.284

>  <BIODEGRADATION_HALF_LIFE_DAYS_DAYS_OPERA_PRED>
3.68005

>  <BOILING_POINT_DEGC_OPERA_PRED>
422.191

>  <HENRYS_LAW_ATM-M3/MOLE_OPERA_PRED>
2.08E-05

>  <OPERA_KM_DAYS_OPERA_PRED>
3.15344

>  <OCTANOL_AIR_PARTITION_COEFF_LOGKOA_OPERA_PRED>
11.7031

>  <SOIL_ADSORPTION_COEFFICIENT_KOC_L/KG_OPERA_PRED>
3057.89

>  <OCTANOL_WATER_PARTITION_LOGP_OPERA_PRED>
5.14971

>  <MELTING_POINT_DEGC_OPERA_PRED>
51.8806

>  <VAPOR_PRESSURE_MMHG_OPERA_PRED>
2.11E-08

>  <WATER_SOLUBILITY_MOL/L_OPERA_PRED>
3.19E-07

>  <Shape Index>
0.42308

>  <Molecular Flexibility>
0.55101

>  <Molecular Complexity>
0.65645

>  <Electronegative Atoms>
5

>  <Stereo Centers>
0

>  <Rotatable Bonds>
6

>  <Rings Closures>
3

>  <Aromatic Rings>
3

>  <Aromatic Atoms>
18

>  <Amides>
0

>  <Amines>
0

>  <Aromatic Nitrogens>
0

>  <Shape Index 2>
0.42308

>  <Molecular Flexibility 2>
0.55101

>  <Molecular Complexity 2>
0.65645

>  <Non-C/H Atoms>
5

>  <Electronegative Atoms 2>
5

>  <Stereo Centers 2>
0

>  <Rotatable Bonds 2>
6

>  <Rings Closures 2>
3

>  <Aromatic Rings 2>
3

>  <Aromatic Atoms 2>
18

>  <sp3-Atoms>
7

>  <Amides 2>
0

>  <Amines 2>
0

>  <Aromatic Nitrogens 2>
0

>  <Basic Nitrogens>
0

$$$$
Tri-m-cresyl phosphate
Actelion Java MolfileCreator 2.0

  0  0  0  0  0  0              0 V3000
M  V30 BEGIN CTAB
M  V30 COUNTS 26 28 0 0 0
M  V30 BEGIN ATOM
M  V30 1 P 0.0 0.0 0.0 0
M  V30 2 O 1.2881 -0.7445 0.0 0
M  V30 3 O 1.2881 0.7563 0.0 0
M  V30 4 O -0.0118 -1.4891 0.0 0
M  V30 5 O -1.3118 0.7563 0.0 0
M  V30 6 C 2.5763 0.0118 0.0 0
M  V30 7 C -1.3236 -2.2218 0.0 0
M  V30 8 C -1.3236 2.2691 0.0 0
M  V30 9 C 2.5645 -1.4772 0.0 0
M  V30 10 C 3.8645 0.7681 0.0 0
M  V30 11 C -1.3354 -3.7109 0.0 0
M  V30 12 C -2.6354 -1.4654 0.0 0
M  V30 13 C -2.6354 3.0254 0.0 0
M  V30 14 C -0.0354 3.0254 0.0 0
M  V30 15 C 3.8527 -2.2218 0.0 0
M  V30 16 C 5.1527 0.0236 0.0 0
M  V30 17 C -2.6472 -4.4554 0.0 0
M  V30 18 C -3.9473 -2.21 0.0 0
M  V30 19 C -2.6472 4.5382 0.0 0
M  V30 20 C -0.0472 4.5382 0.0 0
M  V30 21 C 5.1409 -1.4654 0.0 0
M  V30 22 C 3.8409 -3.7109 0.0 0
M  V30 23 C -3.9591 -3.6991 0.0 0
M  V30 24 C -2.6591 -5.9445 0.0 0
M  V30 25 C -1.3591 5.3064 0.0 0
M  V30 26 C -3.9591 5.2945 0.0 0
M  V30 END ATOM
M  V30 BEGIN BOND
M  V30 1 2 1 2
M  V30 2 1 1 3
M  V30 3 1 1 4
M  V30 4 1 1 5
M  V30 5 1 3 6
M  V30 6 1 4 7
M  V30 7 1 5 8
M  V30 8 2 6 9
M  V30 9 1 6 10
M  V30 10 2 7 11
M  V30 11 1 7 12
M  V30 12 2 8 13
M  V30 13 1 8 14
M  V30 14 1 9 15
M  V30 15 2 10 16
M  V30 16 1 11 17
M  V30 17 2 12 18
M  V30 18 1 13 19
M  V30 19 2 14 20
M  V30 20 2 15 21
M  V30 21 1 15 22
M  V30 22 2 17 23
M  V30 23 1 17 24
M  V30 24 2 19 25
M  V30 25 1 19 26
M  V30 26 1 16 21
M  V30 27 1 18 23
M  V30 28 1 20 25
M  V30 END BOND
M  V30 END CTAB
M  END
>  <Molecule Name>
Tri-m-cresyl phosphate

>  <Order (spectra)>
174

>  <NAME>
Tri-m-cresyl phosphate

>  <Molecular Formula>
C21H21O4P

>  <Monoisotopic Mass>
368.117747

>  <SMILES>
CC1=CC=CC(OP(=O)(OC2=CC(C)=CC=C2)OC2=CC(C)=CC=C2)=C1

>  <InChI>
InChI=1S/C21H21O4P/c1-16-7-4-10-19(13-16)23-26(22,24-20-11-5-8-17(2)14-20)25-21-12-6-9-18(3)15-21/h4-15H,1-3H3

>  <InChIKey>
RMLPZKRPSQVRAB-UHFFFAOYSA-N

>  <Kingdom>
Organic compounds

>  <Superclass>
Organic acids and derivatives

>  <Class>
Organic phosphoric acids and derivatives

>  <Subclass>
Phosphate esters

>  <Parent Level 1>
Aryl phosphates

>  <Parent Level 2>
Aryl phosphotriesters

>  <Parent Level 3>


>  <cLogP>
5.317

>  <cLogS>
-5.578

>  <Druglikeness>
-18.505

>  <NP-class probability>
0.34

>  <SmilesFragFp 3>


>  <MS_READY_SMILES>
CC1=CC=CC(OP(=O)(OC2=CC(C)=CC=C2)OC2=CC(C)=CC=C2)=C1

>  <MS_READY_InChI>
InChI=1S/C21H21O4P/c1-16-7-4-10-19(13-16)23-26(22,24-20-11-5-8-17(2)14-20)25-21-12-6-9-18(3)15-21/h4-15H,1-3H3

>  <QSAR_READY_SMILES>
CC1=CC=CC(OP(=O)(OC2=CC(C)=CC=C2)OC2=CC(C)=CC=C2)=C1

>  <QSAR_READY_InChI>
InChI=1S/C21H21O4P/c1-16-7-4-10-19(13-16)23-26(22,24-20-11-5-8-17(2)14-20)25-21-12-6-9-18(3)15-21/h4-15H,1-3H3

>  <DTXSID>
DTXSID4026216

>  <DTXCID>
DTXCID706216

>  <CASRN>
563-04-2

>  <EXPOCAST_MEDIAN_EXPOSURE_PREDICTION_MG/KG-BW/DAY>
2.61E-07

>  <BIOCONCENTRATION_FACTOR_TEST_PRED>
96.6051

>  <BOILING_POINT_DEGC_TEST_PRED>
408.67

>  <48HR_DAPHNIA_LC50_MOL/L_TEST_PRED>
1.07E-07

>  <DENSITY_G/CM^3_TEST_PRED>
1.17

>  <DEVTOX_TEST_PRED>
0.479

>  <96HR_FATHEAD_MINNOW_MOL/L_TEST_PRED>
6.04E-07

>  <FLASH_POINT_DEGC_TEST_PRED>
231.316

>  <MELTING_POINT_DEGC_TEST_PRED>
73.214

>  <AMES_MUTAGENICITY_TEST_PRED>
0.231

>  <ORAL_RAT_LD50_MOL/KG_TEST_PRED>
0.0199986

>  <SURFACE_TENSION_DYN/CM_TEST_PRED>
-

>  <THERMAL_CONDUCTIVITY_MW/(M*K)_TEST_PRED>
-

>  <TETRAHYMENA_PYRIFORMIS_IGC50_MOL/L_TEST_PRED>
1.29E-05

>  <VISCOSITY_CP_CP_TEST_PRED>
50.4661

>  <VAPOR_PRESSURE_MMHG_TEST_PRED>
5.73E-07

>  <WATER_SOLUBILITY_MOL/L_TEST_PRED>
1.76E-06

>  <ATMOSPHERIC_HYDROXYLATION_RATE_(AOH)_CM3/MOLECULE*SEC_OPERA_PRED>
1.65E-11

>  <BIOCONCENTRATION_FACTOR_OPERA_PRED>
686.674

>  <BIODEGRADATION_HALF_LIFE_DAYS_DAYS_OPERA_PRED>
4.2271

>  <BOILING_POINT_DEGC_OPERA_PRED>
421.959

>  <HENRYS_LAW_ATM-M3/MOLE_OPERA_PRED>
8.26E-05

>  <OPERA_KM_DAYS_OPERA_PRED>
1.29491

>  <OCTANOL_AIR_PARTITION_COEFF_LOGKOA_OPERA_PRED>
11.7031

>  <SOIL_ADSORPTION_COEFFICIENT_KOC_L/KG_OPERA_PRED>
3011.32

>  <OCTANOL_WATER_PARTITION_LOGP_OPERA_PRED>
5.1354

>  <MELTING_POINT_DEGC_OPERA_PRED>
41.3917

>  <VAPOR_PRESSURE_MMHG_OPERA_PRED>
1.96E-08

>  <WATER_SOLUBILITY_MOL/L_OPERA_PRED>
6.29E-07

>  <Shape Index>
0.42308

>  <Molecular Flexibility>
0.59817

>  <Molecular Complexity>
0.63799

>  <Electronegative Atoms>
5

>  <Stereo Centers>
0

>  <Rotatable Bonds>
6

>  <Rings Closures>
3

>  <Aromatic Rings>
3

>  <Aromatic Atoms>
18

>  <Amides>
0

>  <Amines>
0

>  <Aromatic Nitrogens>
0

>  <Shape Index 2>
0.42308

>  <Molecular Flexibility 2>
0.59817

>  <Molecular Complexity 2>
0.63799

>  <Non-C/H Atoms>
5

>  <Electronegative Atoms 2>
5

>  <Stereo Centers 2>
0

>  <Rotatable Bonds 2>
6

>  <Rings Closures 2>
3

>  <Aromatic Rings 2>
3

>  <Aromatic Atoms 2>
18

>  <sp3-Atoms>
7

>  <Amides 2>
0

>  <Amines 2>
0

>  <Aromatic Nitrogens 2>
0

>  <Basic Nitrogens>
0

$$$$
Tri-p-cresyl-phosphate
Actelion Java MolfileCreator 2.0

  0  0  0  0  0  0              0 V3000
M  V30 BEGIN CTAB
M  V30 COUNTS 26 28 0 0 0
M  V30 BEGIN ATOM
M  V30 1 P 0.0 0.0 0.0 0
M  V30 2 O 1.2891 -0.7332 0.0 0
M  V30 3 O 1.2891 0.7569 0.0 0
M  V30 4 O -0.0118 -1.4901 0.0 0
M  V30 5 O -1.3127 0.7569 0.0 0
M  V30 6 C 2.5782 0.0236 0.0 0
M  V30 7 C -1.3245 -2.2234 0.0 0
M  V30 8 C -1.3245 2.2707 0.0 0
M  V30 9 C 2.5664 -1.4665 0.0 0
M  V30 10 C 3.8673 0.7805 0.0 0
M  V30 11 C -2.6373 -1.4665 0.0 0
M  V30 12 C -1.3364 -3.7136 0.0 0
M  V30 13 C -2.6373 3.0276 0.0 0
M  V30 14 C -0.0354 3.0394 0.0 0
M  V30 15 C 3.8555 -2.1997 0.0 0
M  V30 16 C 5.1564 0.0473 0.0 0
M  V30 17 C -3.9501 -2.1997 0.0 0
M  V30 18 C -2.6491 -4.4468 0.0 0
M  V30 19 C -2.6491 4.5414 0.0 0
M  V30 20 C -0.0473 4.5533 0.0 0
M  V30 21 C 5.1446 -1.4428 0.0 0
M  V30 22 C -3.9619 -3.6899 0.0 0
M  V30 23 C -1.36 5.3102 0.0 0
M  V30 24 C 6.4337 -2.1761 0.0 0
M  V30 25 C -5.2747 -4.4232 0.0 0
M  V30 26 C -1.3719 6.824 0.0 0
M  V30 END ATOM
M  V30 BEGIN BOND
M  V30 1 2 1 2
M  V30 2 1 1 3
M  V30 3 1 1 4
M  V30 4 1 1 5
M  V30 5 1 3 6
M  V30 6 1 4 7
M  V30 7 1 5 8
M  V30 8 2 6 9
M  V30 9 1 6 10
M  V30 10 2 7 11
M  V30 11 1 7 12
M  V30 12 2 8 13
M  V30 13 1 8 14
M  V30 14 1 9 15
M  V30 15 2 10 16
M  V30 16 1 11 17
M  V30 17 2 12 18
M  V30 18 1 13 19
M  V30 19 2 14 20
M  V30 20 2 15 21
M  V30 21 2 17 22
M  V30 22 2 19 23
M  V30 23 1 21 24
M  V30 24 1 22 25
M  V30 25 1 23 26
M  V30 26 1 16 21
M  V30 27 1 18 22
M  V30 28 1 20 23
M  V30 END BOND
M  V30 END CTAB
M  END
>  <Molecule Name>
Tri-p-cresyl-phosphate

>  <Order (spectra)>
175

>  <NAME>
Tri-p-cresyl-phosphate

>  <Molecular Formula>
C21H21O4P

>  <Monoisotopic Mass>
368.117747

>  <SMILES>
CC1=CC=C(OP(=O)(OC2=CC=C(C)C=C2)OC2=CC=C(C)C=C2)C=C1

>  <InChI>
InChI=1S/C21H21O4P/c1-16-4-10-19(11-5-16)23-26(22,24-20-12-6-17(2)7-13-20)25-21-14-8-18(3)9-15-21/h4-15H,1-3H3

>  <InChIKey>
BOSMZFBHAYFUBJ-UHFFFAOYSA-N

>  <Kingdom>
Organic compounds

>  <Superclass>
Organic acids and derivatives

>  <Class>
Organic phosphoric acids and derivatives

>  <Subclass>
Phosphate esters

>  <Parent Level 1>
Aryl phosphates

>  <Parent Level 2>
Aryl phosphotriesters

>  <Parent Level 3>


>  <cLogP>
5.317

>  <cLogS>
-5.578

>  <Druglikeness>
-18.505

>  <NP-class probability>
0.34

>  <SmilesFragFp 3>


>  <MS_READY_SMILES>
CC1=CC=C(OP(=O)(OC2=CC=C(C)C=C2)OC2=CC=C(C)C=C2)C=C1

>  <MS_READY_InChI>
InChI=1S/C21H21O4P/c1-16-4-10-19(11-5-16)23-26(22,24-20-12-6-17(2)7-13-20)25-21-14-8-18(3)9-15-21/h4-15H,1-3H3

>  <QSAR_READY_SMILES>
CC1=CC=C(OP(=O)(OC2=CC=C(C)C=C2)OC2=CC=C(C)C=C2)C=C1

>  <QSAR_READY_InChI>
InChI=1S/C21H21O4P/c1-16-4-10-19(11-5-16)23-26(22,24-20-12-6-17(2)7-13-20)25-21-14-8-18(3)9-15-21/h4-15H,1-3H3

>  <DTXSID>
DTXSID5052676

>  <DTXCID>
DTXCID801391

>  <CASRN>
78-32-0

>  <EXPOCAST_MEDIAN_EXPOSURE_PREDICTION_MG/KG-BW/DAY>
3.27E-07

>  <BIOCONCENTRATION_FACTOR_TEST_PRED>
89.7429

>  <BOILING_POINT_DEGC_TEST_PRED>
408.591

>  <48HR_DAPHNIA_LC50_MOL/L_TEST_PRED>
8.45E-08

>  <DENSITY_G/CM^3_TEST_PRED>
1.175

>  <DEVTOX_TEST_PRED>
0.496

>  <96HR_FATHEAD_MINNOW_MOL/L_TEST_PRED>
6.68E-07

>  <FLASH_POINT_DEGC_TEST_PRED>
225.996

>  <MELTING_POINT_DEGC_TEST_PRED>
59.708

>  <AMES_MUTAGENICITY_TEST_PRED>
0.059

>  <ORAL_RAT_LD50_MOL/KG_TEST_PRED>
0.0054325

>  <SURFACE_TENSION_DYN/CM_TEST_PRED>
-

>  <THERMAL_CONDUCTIVITY_MW/(M*K)_TEST_PRED>
-

>  <TETRAHYMENA_PYRIFORMIS_IGC50_MOL/L_TEST_PRED>
1.49E-05

>  <VISCOSITY_CP_CP_TEST_PRED>
51.1682

>  <VAPOR_PRESSURE_MMHG_TEST_PRED>
6.07E-07

>  <WATER_SOLUBILITY_MOL/L_TEST_PRED>
2.73E-06

>  <ATMOSPHERIC_HYDROXYLATION_RATE_(AOH)_CM3/MOLECULE*SEC_OPERA_PRED>
1.65E-11

>  <BIOCONCENTRATION_FACTOR_OPERA_PRED>
686.674

>  <BIODEGRADATION_HALF_LIFE_DAYS_DAYS_OPERA_PRED>
3.68015

>  <BOILING_POINT_DEGC_OPERA_PRED>
421.959

>  <HENRYS_LAW_ATM-M3/MOLE_OPERA_PRED>
2.57E-05

>  <OPERA_KM_DAYS_OPERA_PRED>
1.02538

>  <OCTANOL_AIR_PARTITION_COEFF_LOGKOA_OPERA_PRED>
11.7031

>  <SOIL_ADSORPTION_COEFFICIENT_KOC_L/KG_OPERA_PRED>
10418.8

>  <OCTANOL_WATER_PARTITION_LOGP_OPERA_PRED>
5.1314

>  <MELTING_POINT_DEGC_OPERA_PRED>
61.6317

>  <VAPOR_PRESSURE_MMHG_OPERA_PRED>
3.95E-08

>  <WATER_SOLUBILITY_MOL/L_OPERA_PRED>
8.12E-07

>  <Shape Index>
0.5

>  <Molecular Flexibility>
0.59817

>  <Molecular Complexity>
0.59634

>  <Electronegative Atoms>
5

>  <Stereo Centers>
0

>  <Rotatable Bonds>
6

>  <Rings Closures>
3

>  <Aromatic Rings>
3

>  <Aromatic Atoms>
18

>  <Amides>
0

>  <Amines>
0

>  <Aromatic Nitrogens>
0

>  <Shape Index 2>
0.5

>  <Molecular Flexibility 2>
0.59817

>  <Molecular Complexity 2>
0.59634

>  <Non-C/H Atoms>
5

>  <Electronegative Atoms 2>
5

>  <Stereo Centers 2>
0

>  <Rotatable Bonds 2>
6

>  <Rings Closures 2>
3

>  <Aromatic Rings 2>
3

>  <Aromatic Atoms 2>
18

>  <sp3-Atoms>
7

>  <Amides 2>
0

>  <Amines 2>
0

>  <Aromatic Nitrogens 2>
0

>  <Basic Nitrogens>
0

$$$$
Isodecyl diphenyl phosphate
Actelion Java MolfileCreator 2.0

  0  0  0  0  0  0              0 V3000
M  V30 BEGIN CTAB
M  V30 COUNTS 27 28 0 0 0
M  V30 BEGIN ATOM
M  V30 1 P 0.0 0.0 0.0 0
M  V30 2 O -0.0117 1.5093 0.0 0
M  V30 3 O 1.2852 0.7546 0.0 0
M  V30 4 O -0.0117 -1.4857 0.0 0
M  V30 5 O -1.3088 0.7546 0.0 0
M  V30 6 C 2.5705 0.0117 0.0 0
M  V30 7 C -1.3206 -2.2285 0.0 0
M  V30 8 C -2.6177 0.0117 0.0 0
M  V30 9 C 2.5587 -1.4739 0.0 0
M  V30 10 C 3.8558 0.7664 0.0 0
M  V30 11 C -2.6295 -1.4621 0.0 0
M  V30 12 C -1.3324 -3.7143 0.0 0
M  V30 13 C -3.9265 0.7664 0.0 0
M  V30 14 C 3.844 -2.2168 0.0 0
M  V30 15 C 5.1411 0.0235 0.0 0
M  V30 16 C -3.9383 -2.205 0.0 0
M  V30 17 C -2.6412 -4.4571 0.0 0
M  V30 18 C -5.2354 0.0235 0.0 0
M  V30 19 C 5.1293 -1.4621 0.0 0
M  V30 20 C -3.9501 -3.6907 0.0 0
M  V30 21 C -6.5442 0.7782 0.0 0
M  V30 22 C -7.8531 0.0353 0.0 0
M  V30 23 C -9.162 0.79 0.0 0
M  V30 24 C -10.4708 0.0471 0.0 0
M  V30 25 C -11.7797 0.8018 0.0 0
M  V30 26 C -11.7915 2.3111 0.0 0
M  V30 27 C -13.0885 0.0589 0.0 0
M  V30 END ATOM
M  V30 BEGIN BOND
M  V30 1 2 1 2
M  V30 2 1 1 3
M  V30 3 1 1 4
M  V30 4 1 1 5
M  V30 5 1 3 6
M  V30 6 1 4 7
M  V30 7 1 5 8
M  V30 8 2 6 9
M  V30 9 1 6 10
M  V30 10 2 7 11
M  V30 11 1 7 12
M  V30 12 1 8 13
M  V30 13 1 9 14
M  V30 14 2 10 15
M  V30 15 1 11 16
M  V30 16 2 12 17
M  V30 17 1 13 18
M  V30 18 2 14 19
M  V30 19 2 16 20
M  V30 20 1 18 21
M  V30 21 1 21 22
M  V30 22 1 22 23
M  V30 23 1 23 24
M  V30 24 1 24 25
M  V30 25 1 25 26
M  V30 26 1 25 27
M  V30 27 1 15 19
M  V30 28 1 17 20
M  V30 END BOND
M  V30 END CTAB
M  END
>  <Molecule Name>
Isodecyl diphenyl phosphate

>  <Order (spectra)>
176

>  <NAME>
Isodecyl diphenyl phosphate

>  <Molecular Formula>
C22H31O4P

>  <Monoisotopic Mass>
390.195997

>  <SMILES>
CC(C)CCCCCCCOP(=O)(OC1=CC=CC=C1)OC1=CC=CC=C1

>  <InChI>
InChI=1S/C22H31O4P/c1-20(2)14-8-4-3-5-13-19-24-27(23,25-21-15-9-6-10-16-21)26-22-17-11-7-12-18-22/h6-7,9-12,15-18,20H,3-5,8,13-14,19H2,1-2H3

>  <InChIKey>
RYUJRXVZSJCHDZ-UHFFFAOYSA-N

>  <Kingdom>
Organic compounds

>  <Superclass>
Organic acids and derivatives

>  <Class>
Organic phosphoric acids and derivatives

>  <Subclass>
Phosphate esters

>  <Parent Level 1>
Aryl phosphates

>  <Parent Level 2>
Aryl phosphotriesters

>  <Parent Level 3>


>  <cLogP>
6.4222

>  <cLogS>
-5.283

>  <Druglikeness>
-26.601

>  <NP-class probability>
0.33

>  <SmilesFragFp 3>


>  <MS_READY_SMILES>
CC(C)CCCCCCCOP(=O)(OC1=CC=CC=C1)OC1=CC=CC=C1

>  <MS_READY_InChI>
InChI=1S/C22H31O4P/c1-20(2)14-8-4-3-5-13-19-24-27(23,25-21-15-9-6-10-16-21)26-22-17-11-7-12-18-22/h6-7,9-12,15-18,20H,3-5,8,13-14,19H2,1-2H3

>  <QSAR_READY_SMILES>
CC(C)CCCCCCCOP(=O)(OC1=CC=CC=C1)OC1=CC=CC=C1

>  <QSAR_READY_InChI>
InChI=1S/C22H31O4P/c1-20(2)14-8-4-3-5-13-19-24-27(23,25-21-15-9-6-10-16-21)26-22-17-11-7-12-18-22/h6-7,9-12,15-18,20H,3-5,8,13-14,19H2,1-2H3

>  <DTXSID>
DTXSID60274200

>  <DTXCID>
DTXCID105465

>  <CASRN>
NOCAS_274200

>  <EXPOCAST_MEDIAN_EXPOSURE_PREDICTION_MG/KG-BW/DAY>
8.94E-07

>  <BIOCONCENTRATION_FACTOR_TEST_PRED>
50.6991

>  <BOILING_POINT_DEGC_TEST_PRED>
415.967

>  <48HR_DAPHNIA_LC50_MOL/L_TEST_PRED>
8.11E-08

>  <DENSITY_G/CM^3_TEST_PRED>
1.101

>  <DEVTOX_TEST_PRED>
0.626

>  <96HR_FATHEAD_MINNOW_MOL/L_TEST_PRED>
1.58E-07

>  <FLASH_POINT_DEGC_TEST_PRED>
230.223

>  <MELTING_POINT_DEGC_TEST_PRED>
2.689

>  <AMES_MUTAGENICITY_TEST_PRED>
-0.007

>  <ORAL_RAT_LD50_MOL/KG_TEST_PRED>
0.00914113

>  <SURFACE_TENSION_DYN/CM_TEST_PRED>
-

>  <THERMAL_CONDUCTIVITY_MW/(M*K)_TEST_PRED>
-

>  <TETRAHYMENA_PYRIFORMIS_IGC50_MOL/L_TEST_PRED>
5.21E-06

>  <VISCOSITY_CP_CP_TEST_PRED>
38.815

>  <VAPOR_PRESSURE_MMHG_TEST_PRED>
3.48E-07

>  <WATER_SOLUBILITY_MOL/L_TEST_PRED>
3.12E-06

>  <ATMOSPHERIC_HYDROXYLATION_RATE_(AOH)_CM3/MOLECULE*SEC_OPERA_PRED>
2.32E-11

>  <BIOCONCENTRATION_FACTOR_OPERA_PRED>
195.453

>  <BIODEGRADATION_HALF_LIFE_DAYS_DAYS_OPERA_PRED>
4.22715

>  <BOILING_POINT_DEGC_OPERA_PRED>
400.845

>  <HENRYS_LAW_ATM-M3/MOLE_OPERA_PRED>
2.07E-06

>  <OPERA_KM_DAYS_OPERA_PRED>
2.62001

>  <OCTANOL_AIR_PARTITION_COEFF_LOGKOA_OPERA_PRED>
11.6982

>  <SOIL_ADSORPTION_COEFFICIENT_KOC_L/KG_OPERA_PRED>
56325.9

>  <OCTANOL_WATER_PARTITION_LOGP_OPERA_PRED>
5.43977

>  <MELTING_POINT_DEGC_OPERA_PRED>
-0.852085

>  <VAPOR_PRESSURE_MMHG_OPERA_PRED>
6.34E-06

>  <WATER_SOLUBILITY_MOL/L_OPERA_PRED>
1.09E-06

>  <Shape Index>
0.59259

>  <Molecular Flexibility>
0.62995

>  <Molecular Complexity>
0.59188

>  <Electronegative Atoms>
5

>  <Stereo Centers>
0

>  <Rotatable Bonds>
13

>  <Rings Closures>
2

>  <Aromatic Rings>
2

>  <Aromatic Atoms>
12

>  <Amides>
0

>  <Amines>
0

>  <Aromatic Nitrogens>
0

>  <Shape Index 2>
0.59259

>  <Molecular Flexibility 2>
0.62995

>  <Molecular Complexity 2>
0.59188

>  <Non-C/H Atoms>
5

>  <Electronegative Atoms 2>
5

>  <Stereo Centers 2>
0

>  <Rotatable Bonds 2>
13

>  <Rings Closures 2>
2

>  <Aromatic Rings 2>
2

>  <Aromatic Atoms 2>
12

>  <sp3-Atoms>
14

>  <Amides 2>
0

>  <Amines 2>
0

>  <Aromatic Nitrogens 2>
0

>  <Basic Nitrogens>
0

$$$$
Tris(isopropylphenyl)phosphate
Actelion Java MolfileCreator 2.0

  0  0  0  0  0  0              0 V3000
M  V30 BEGIN CTAB
M  V30 COUNTS 32 34 0 0 0
M  V30 BEGIN ATOM
M  V30 1 P 0.0 0.0 0.0 0
M  V30 2 O 1.2888 -0.733 0.0 0
M  V30 3 O 1.2888 0.7567 0.0 0
M  V30 4 O -0.0118 -1.4898 0.0 0
M  V30 5 O -1.3124 0.7567 0.0 0
M  V30 6 C 2.5776 0.0236 0.0 0
M  V30 7 C -1.3242 -2.2228 0.0 0
M  V30 8 C -1.3242 2.2701 0.0 0
M  V30 9 C 3.8664 0.7803 0.0 0
M  V30 10 C 2.5657 -1.4661 0.0 0
M  V30 11 C -1.3361 -3.7127 0.0 0
M  V30 12 C -2.6367 -1.4661 0.0 0
M  V30 13 C -2.6367 3.0269 0.0 0
M  V30 14 C -0.0354 3.0269 0.0 0
M  V30 15 C 5.1552 0.0472 0.0 0
M  V30 16 C 3.8545 2.2938 0.0 0
M  V30 17 C 3.8545 -2.1992 0.0 0
M  V30 18 C -2.6485 -4.4576 0.0 0
M  V30 19 C -0.0472 -4.4576 0.0 0
M  V30 20 C -3.9491 -2.1992 0.0 0
M  V30 21 C -2.6485 4.5403 0.0 0
M  V30 22 C -3.9491 2.2938 0.0 0
M  V30 23 C -0.0472 4.5403 0.0 0
M  V30 24 C 5.1433 -1.4425 0.0 0
M  V30 25 C 2.5421 3.0505 0.0 0
M  V30 26 C 5.1433 3.0505 0.0 0
M  V30 27 C -3.961 -3.7008 0.0 0
M  V30 28 C 1.2415 -3.7008 0.0 0
M  V30 29 C -0.0591 -5.9474 0.0 0
M  V30 30 C -1.3597 5.2971 0.0 0
M  V30 31 C -3.961 0.804 0.0 0
M  V30 32 C -5.2616 3.0505 0.0 0
M  V30 END ATOM
M  V30 BEGIN BOND
M  V30 1 2 1 2
M  V30 2 1 1 3
M  V30 3 1 1 4
M  V30 4 1 1 5
M  V30 5 1 3 6
M  V30 6 1 4 7
M  V30 7 1 5 8
M  V30 8 2 6 9
M  V30 9 1 6 10
M  V30 10 2 7 11
M  V30 11 1 7 12
M  V30 12 2 8 13
M  V30 13 1 8 14
M  V30 14 1 9 15
M  V30 15 1 9 16
M  V30 16 2 10 17
M  V30 17 1 11 18
M  V30 18 1 11 19
M  V30 19 2 12 20
M  V30 20 1 13 21
M  V30 21 1 13 22
M  V30 22 2 14 23
M  V30 23 2 15 24
M  V30 24 1 16 25
M  V30 25 1 16 26
M  V30 26 2 18 27
M  V30 27 1 19 28
M  V30 28 1 19 29
M  V30 29 2 21 30
M  V30 30 1 22 31
M  V30 31 1 22 32
M  V30 32 1 17 24
M  V30 33 1 20 27
M  V30 34 1 23 30
M  V30 END BOND
M  V30 END CTAB
M  END
>  <Molecule Name>
Tris(isopropylphenyl)phosphate

>  <Order (spectra)>
177

>  <NAME>
Tris(isopropylphenyl)phosphate

>  <Molecular Formula>
C27H33O4P

>  <Monoisotopic Mass>
452.211647

>  <SMILES>
CC(C)C1=CC=CC=C1OP(=O)(OC1=CC=CC=C1C(C)C)OC1=CC=CC=C1C(C)C

>  <InChI>
InChI=1S/C27H33O4P/c1-19(2)22-13-7-10-16-25(22)29-32(28,30-26-17-11-8-14-23(26)20(3)4)31-27-18-12-9-15-24(27)21(5)6/h7-21H,1-6H3

>  <InChIKey>
LIPMRGQQBZJCTM-UHFFFAOYSA-N

>  <Kingdom>
Organic compounds

>  <Superclass>
Organic acids and derivatives

>  <Class>
Organic phosphoric acids and derivatives

>  <Subclass>
Phosphate esters

>  <Parent Level 1>
Aryl phosphates

>  <Parent Level 2>
Aryl phosphotriesters

>  <Parent Level 3>


>  <cLogP>
7.8463

>  <cLogS>
-7.159

>  <Druglikeness>
-18.448

>  <NP-class probability>
0.36

>  <SmilesFragFp 3>


>  <MS_READY_SMILES>
CC(C)C1=CC=CC=C1OP(=O)(OC1=CC=CC=C1C(C)C)OC1=CC=CC=C1C(C)C

>  <MS_READY_InChI>
InChI=1S/C27H33O4P/c1-19(2)22-13-7-10-16-25(22)29-32(28,30-26-17-11-8-14-23(26)20(3)4)31-27-18-12-9-15-24(27)21(5)6/h7-21H,1-6H3

>  <QSAR_READY_SMILES>
CC(C)C1=CC=CC=C1OP(=O)(OC1=CC=CC=C1C(C)C)OC1=CC=CC=C1C(C)C

>  <QSAR_READY_InChI>
InChI=1S/C27H33O4P/c1-19(2)22-13-7-10-16-25(22)29-32(28,30-26-17-11-8-14-23(26)20(3)4)31-27-18-12-9-15-24(27)21(5)6/h7-21H,1-6H3

>  <DTXSID>
DTXSID00214802

>  <DTXCID>
DTXCID90137293

>  <CASRN>
64532-95-2

>  <EXPOCAST_MEDIAN_EXPOSURE_PREDICTION_MG/KG-BW/DAY>
9.93E-07

>  <BIOCONCENTRATION_FACTOR_TEST_PRED>
118.304

>  <BOILING_POINT_DEGC_TEST_PRED>
438.646

>  <48HR_DAPHNIA_LC50_MOL/L_TEST_PRED>
8.63E-09

>  <DENSITY_G/CM^3_TEST_PRED>
1.101

>  <DEVTOX_TEST_PRED>
0.439

>  <96HR_FATHEAD_MINNOW_MOL/L_TEST_PRED>
1.49E-08

>  <FLASH_POINT_DEGC_TEST_PRED>
254.122

>  <MELTING_POINT_DEGC_TEST_PRED>
63.714

>  <AMES_MUTAGENICITY_TEST_PRED>
0.271

>  <ORAL_RAT_LD50_MOL/KG_TEST_PRED>
-

>  <SURFACE_TENSION_DYN/CM_TEST_PRED>
-

>  <THERMAL_CONDUCTIVITY_MW/(M*K)_TEST_PRED>
-

>  <TETRAHYMENA_PYRIFORMIS_IGC50_MOL/L_TEST_PRED>
-

>  <VISCOSITY_CP_CP_TEST_PRED>
-

>  <VAPOR_PRESSURE_MMHG_TEST_PRED>
4.06E-08

>  <WATER_SOLUBILITY_MOL/L_TEST_PRED>
5.70E-07

>  <ATMOSPHERIC_HYDROXYLATION_RATE_(AOH)_CM3/MOLECULE*SEC_OPERA_PRED>
2.81E-11

>  <BIOCONCENTRATION_FACTOR_OPERA_PRED>
6728.9

>  <BIODEGRADATION_HALF_LIFE_DAYS_DAYS_OPERA_PRED>
4.22749

>  <BOILING_POINT_DEGC_OPERA_PRED>
452.722

>  <HENRYS_LAW_ATM-M3/MOLE_OPERA_PRED>
3.75E-06

>  <OPERA_KM_DAYS_OPERA_PRED>
2.59394

>  <OCTANOL_AIR_PARTITION_COEFF_LOGKOA_OPERA_PRED>
11.6806

>  <SOIL_ADSORPTION_COEFFICIENT_KOC_L/KG_OPERA_PRED>
65987.8

>  <OCTANOL_WATER_PARTITION_LOGP_OPERA_PRED>
6.02495

>  <MELTING_POINT_DEGC_OPERA_PRED>
55.123

>  <VAPOR_PRESSURE_MMHG_OPERA_PRED>
3.69E-09

>  <WATER_SOLUBILITY_MOL/L_OPERA_PRED>
2.96E-07

>  <Shape Index>
0.34375

>  <Molecular Flexibility>
0.54322

>  <Molecular Complexity>
0.74264

>  <Electronegative Atoms>
5

>  <Stereo Centers>
0

>  <Rotatable Bonds>
9

>  <Rings Closures>
3

>  <Aromatic Rings>
3

>  <Aromatic Atoms>
18

>  <Amides>
0

>  <Amines>
0

>  <Aromatic Nitrogens>
0

>  <Shape Index 2>
0.34375

>  <Molecular Flexibility 2>
0.54322

>  <Molecular Complexity 2>
0.74264

>  <Non-C/H Atoms>
5

>  <Electronegative Atoms 2>
5

>  <Stereo Centers 2>
0

>  <Rotatable Bonds 2>
9

>  <Rings Closures 2>
3

>  <Aromatic Rings 2>
3

>  <Aromatic Atoms 2>
18

>  <sp3-Atoms>
13

>  <Amides 2>
0

>  <Amines 2>
0

>  <Aromatic Nitrogens 2>
0

>  <Basic Nitrogens>
0

$$$$
Tris(3,5-xylenyl)phosphate
Actelion Java MolfileCreator 2.0

  0  0  0  0  0  0              0 V3000
M  V30 BEGIN CTAB
M  V30 COUNTS 29 31 0 0 0
M  V30 BEGIN ATOM
M  V30 1 P 0.0 0.0 0.0 0
M  V30 2 O 1.2891 -0.7332 0.0 0
M  V30 3 O 1.2891 0.7569 0.0 0
M  V30 4 O -0.0118 -1.4901 0.0 0
M  V30 5 O -1.3127 0.7569 0.0 0
M  V30 6 C 2.5782 0.0236 0.0 0
M  V30 7 C -1.3245 -2.2234 0.0 0
M  V30 8 C -1.3245 2.2707 0.0 0
M  V30 9 C 2.5663 -1.4665 0.0 0
M  V30 10 C 3.8673 0.7805 0.0 0
M  V30 11 C -2.6373 -1.4665 0.0 0
M  V30 12 C -1.3364 -3.7135 0.0 0
M  V30 13 C -2.6373 3.0276 0.0 0
M  V30 14 C -0.0354 3.0394 0.0 0
M  V30 15 C 3.8555 -2.1997 0.0 0
M  V30 16 C 5.1564 0.0473 0.0 0
M  V30 17 C -3.9501 -2.1997 0.0 0
M  V30 18 C -2.6491 -4.4468 0.0 0
M  V30 19 C -2.6491 4.5414 0.0 0
M  V30 20 C -0.0473 4.5532 0.0 0
M  V30 21 C 5.1446 -1.4428 0.0 0
M  V30 22 C 3.8436 -3.6899 0.0 0
M  V30 23 C 6.4455 0.8042 0.0 0
M  V30 24 C -3.9619 -3.6899 0.0 0
M  V30 25 C -5.2628 -1.4428 0.0 0
M  V30 26 C -2.661 -5.937 0.0 0
M  V30 27 C -1.36 5.3101 0.0 0
M  V30 28 C -3.9619 5.2983 0.0 0
M  V30 29 C 1.2418 5.3101 0.0 0
M  V30 END ATOM
M  V30 BEGIN BOND
M  V30 1 2 1 2
M  V30 2 1 1 3
M  V30 3 1 1 4
M  V30 4 1 1 5
M  V30 5 1 3 6
M  V30 6 1 4 7
M  V30 7 1 5 8
M  V30 8 2 6 9
M  V30 9 1 6 10
M  V30 10 2 7 11
M  V30 11 1 7 12
M  V30 12 2 8 13
M  V30 13 1 8 14
M  V30 14 1 9 15
M  V30 15 2 10 16
M  V30 16 1 11 17
M  V30 17 2 12 18
M  V30 18 1 13 19
M  V30 19 2 14 20
M  V30 20 2 15 21
M  V30 21 1 15 22
M  V30 22 1 16 23
M  V30 23 2 17 24
M  V30 24 1 17 25
M  V30 25 1 18 26
M  V30 26 2 19 27
M  V30 27 1 19 28
M  V30 28 1 20 29
M  V30 29 1 16 21
M  V30 30 1 18 24
M  V30 31 1 20 27
M  V30 END BOND
M  V30 END CTAB
M  END
>  <Molecule Name>
Tris(3,5-xylenyl)phosphate

>  <Order (spectra)>
178

>  <NAME>
Tris(3,5-xylenyl)phosphate

>  <Molecular Formula>
C24H27O4P

>  <Monoisotopic Mass>
410.164697

>  <SMILES>
CC1=CC(OP(=O)(OC2=CC(C)=CC(C)=C2)OC2=CC(C)=CC(C)=C2)=CC(C)=C1

>  <InChI>
InChI=1S/C24H27O4P/c1-16-7-17(2)11-22(10-16)26-29(25,27-23-12-18(3)8-19(4)13-23)28-24-14-20(5)9-21(6)15-24/h7-15H,1-6H3

>  <InChIKey>
LLPMAOBOEQFPRE-UHFFFAOYSA-N

>  <Kingdom>
Organic compounds

>  <Superclass>
Organic acids and derivatives

>  <Class>
Organic phosphoric acids and derivatives

>  <Subclass>
Phosphate esters

>  <Parent Level 1>
Aryl phosphates

>  <Parent Level 2>
Aryl phosphotriesters

>  <Parent Level 3>


>  <cLogP>
6.3487

>  <cLogS>
-6.61

>  <Druglikeness>
-18.505

>  <NP-class probability>
0.34

>  <SmilesFragFp 3>


>  <MS_READY_SMILES>
CC1=CC(OP(=O)(OC2=CC(C)=CC(C)=C2)OC2=CC(C)=CC(C)=C2)=CC(C)=C1

>  <MS_READY_InChI>
InChI=1S/C24H27O4P/c1-16-7-17(2)11-22(10-16)26-29(25,27-23-12-18(3)8-19(4)13-23)28-24-14-20(5)9-21(6)15-24/h7-15H,1-6H3

>  <QSAR_READY_SMILES>
CC1=CC(OP(=O)(OC2=CC(C)=CC(C)=C2)OC2=CC(C)=CC(C)=C2)=CC(C)=C1

>  <QSAR_READY_InChI>
InChI=1S/C24H27O4P/c1-16-7-17(2)11-22(10-16)26-29(25,27-23-12-18(3)8-19(4)13-23)28-24-14-20(5)9-21(6)15-24/h7-15H,1-6H3

>  <DTXSID>
DTXSID10274134

>  <DTXCID>
DTXCID606267

>  <CASRN>
25653-16-1

>  <EXPOCAST_MEDIAN_EXPOSURE_PREDICTION_MG/KG-BW/DAY>
3.62E-07

>  <BIOCONCENTRATION_FACTOR_TEST_PRED>
115.345

>  <BOILING_POINT_DEGC_TEST_PRED>
432.609

>  <48HR_DAPHNIA_LC50_MOL/L_TEST_PRED>
2.58E-08

>  <DENSITY_G/CM^3_TEST_PRED>
1.125

>  <DEVTOX_TEST_PRED>
0.515

>  <96HR_FATHEAD_MINNOW_MOL/L_TEST_PRED>
1.29E-07

>  <FLASH_POINT_DEGC_TEST_PRED>
245.821

>  <MELTING_POINT_DEGC_TEST_PRED>
87.824

>  <AMES_MUTAGENICITY_TEST_PRED>
0.034

>  <ORAL_RAT_LD50_MOL/KG_TEST_PRED>
-

>  <SURFACE_TENSION_DYN/CM_TEST_PRED>
-

>  <THERMAL_CONDUCTIVITY_MW/(M*K)_TEST_PRED>
-

>  <TETRAHYMENA_PYRIFORMIS_IGC50_MOL/L_TEST_PRED>
-

>  <VISCOSITY_CP_CP_TEST_PRED>
-

>  <VAPOR_PRESSURE_MMHG_TEST_PRED>
1.32E-07

>  <WATER_SOLUBILITY_MOL/L_TEST_PRED>
6.32E-07

>  <ATMOSPHERIC_HYDROXYLATION_RATE_(AOH)_CM3/MOLECULE*SEC_OPERA_PRED>
2.30E-11

>  <BIOCONCENTRATION_FACTOR_OPERA_PRED>
2386.07

>  <BIODEGRADATION_HALF_LIFE_DAYS_DAYS_OPERA_PRED>
4.22729

>  <BOILING_POINT_DEGC_OPERA_PRED>
430.807

>  <HENRYS_LAW_ATM-M3/MOLE_OPERA_PRED>
1.46E-05

>  <OPERA_KM_DAYS_OPERA_PRED>
2.45329

>  <OCTANOL_AIR_PARTITION_COEFF_LOGKOA_OPERA_PRED>
11.6843

>  <SOIL_ADSORPTION_COEFFICIENT_KOC_L/KG_OPERA_PRED>
32749.5

>  <OCTANOL_WATER_PARTITION_LOGP_OPERA_PRED>
5.5759

>  <MELTING_POINT_DEGC_OPERA_PRED>
63.7252

>  <VAPOR_PRESSURE_MMHG_OPERA_PRED>
4.07E-09

>  <WATER_SOLUBILITY_MOL/L_OPERA_PRED>
2.18E-06

>  <Shape Index>
0.37931

>  <Molecular Flexibility>
0.59863

>  <Molecular Complexity>
0.66485

>  <Electronegative Atoms>
5

>  <Stereo Centers>
0

>  <Rotatable Bonds>
6

>  <Rings Closures>
3

>  <Aromatic Rings>
3

>  <Aromatic Atoms>
18

>  <Amides>
0

>  <Amines>
0

>  <Aromatic Nitrogens>
0

>  <Shape Index 2>
0.37931

>  <Molecular Flexibility 2>
0.59863

>  <Molecular Complexity 2>
0.66485

>  <Non-C/H Atoms>
5

>  <Electronegative Atoms 2>
5

>  <Stereo Centers 2>
0

>  <Rotatable Bonds 2>
6

>  <Rings Closures 2>
3

>  <Aromatic Rings 2>
3

>  <Aromatic Atoms 2>
18

>  <sp3-Atoms>
10

>  <Amides 2>
0

>  <Amines 2>
0

>  <Aromatic Nitrogens 2>
0

>  <Basic Nitrogens>
0

$$$$
Tris(2-butoxyethyl) phosphate
Actelion Java MolfileCreator 2.0

  0  0  0  0  0  0              0 V3000
M  V30 BEGIN CTAB
M  V30 COUNTS 26 25 0 0 0
M  V30 BEGIN ATOM
M  V30 1 P 0.0 0.0 0.0 0
M  V30 2 O -1.3137 -0.7337 0.0 0
M  V30 3 O 1.29 0.7574 0.0 0
M  V30 4 O -0.0118 -1.4912 0.0 0
M  V30 5 O -1.3137 0.7574 0.0 0
M  V30 6 C 2.58 0.0236 0.0 0
M  V30 7 C -1.3255 -2.2368 0.0 0
M  V30 8 C -2.6274 0.0236 0.0 0
M  V30 9 C 3.8701 0.7811 0.0 0
M  V30 10 C -1.3373 -3.7281 0.0 0
M  V30 11 C -3.9411 0.7811 0.0 0
M  V30 12 O 5.1601 0.0473 0.0 0
M  V30 13 O -2.6511 -4.4618 0.0 0
M  V30 14 O -5.2548 0.0473 0.0 0
M  V30 15 C 6.4502 0.8047 0.0 0
M  V30 16 C -2.6629 -5.9531 0.0 0
M  V30 17 C -6.5685 0.8047 0.0 0
M  V30 18 C 7.7402 0.071 0.0 0
M  V30 19 C -3.9766 -6.6869 0.0 0
M  V30 20 C -7.8822 0.071 0.0 0
M  V30 21 C 9.0303 0.8284 0.0 0
M  V30 22 C -3.9884 -8.1781 0.0 0
M  V30 23 C -9.196 0.8284 0.0 0
M  V30 24 C 10.3203 0.0946 0.0 0
M  V30 25 C -5.3022 -8.9119 0.0 0
M  V30 26 C -10.5097 0.0946 0.0 0
M  V30 END ATOM
M  V30 BEGIN BOND
M  V30 1 2 1 2
M  V30 2 1 1 3
M  V30 3 1 1 4
M  V30 4 1 1 5
M  V30 5 1 3 6
M  V30 6 1 4 7
M  V30 7 1 5 8
M  V30 8 1 6 9
M  V30 9 1 7 10
M  V30 10 1 8 11
M  V30 11 1 9 12
M  V30 12 1 10 13
M  V30 13 1 11 14
M  V30 14 1 12 15
M  V30 15 1 13 16
M  V30 16 1 14 17
M  V30 17 1 15 18
M  V30 18 1 16 19
M  V30 19 1 17 20
M  V30 20 1 18 21
M  V30 21 1 19 22
M  V30 22 1 20 23
M  V30 23 1 21 24
M  V30 24 1 22 25
M  V30 25 1 23 26
M  V30 END BOND
M  V30 END CTAB
M  END
>  <Molecule Name>
Tris(2-butoxyethyl) phosphate

>  <Order (spectra)>
179

>  <NAME>
Tris(2-butoxyethyl) phosphate

>  <Molecular Formula>
C18H39O7P

>  <Monoisotopic Mass>
398.243342

>  <SMILES>
CCCCOCCOP(=O)(OCCOCCCC)OCCOCCCC

>  <InChI>
InChI=1S/C18H39O7P/c1-4-7-10-20-13-16-23-26(19,24-17-14-21-11-8-5-2)25-18-15-22-12-9-6-3/h4-18H2,1-3H3

>  <InChIKey>
WTLBZVNBAKMVDP-UHFFFAOYSA-N

>  <Kingdom>
Organic compounds

>  <Superclass>
Organic acids and derivatives

>  <Class>
Organic phosphoric acids and derivatives

>  <Subclass>
Phosphate esters

>  <Parent Level 1>
Alkyl phosphates

>  <Parent Level 2>
Trialkyl phosphates

>  <Parent Level 3>


>  <cLogP>
2.9476

>  <cLogS>
-1.99

>  <Druglikeness>
-34.042

>  <NP-class probability>
0.45

>  <SmilesFragFp 3>


>  <MS_READY_SMILES>
CCCCOCCOP(=O)(OCCOCCCC)OCCOCCCC

>  <MS_READY_InChI>
InChI=1S/C18H39O7P/c1-4-7-10-20-13-16-23-26(19,24-17-14-21-11-8-5-2)25-18-15-22-12-9-6-3/h4-18H2,1-3H3

>  <QSAR_READY_SMILES>
CCCCOCCOP(=O)(OCCOCCCC)OCCOCCCC

>  <QSAR_READY_InChI>
InChI=1S/C18H39O7P/c1-4-7-10-20-13-16-23-26(19,24-17-14-21-11-8-5-2)25-18-15-22-12-9-6-3/h4-18H2,1-3H3

>  <DTXSID>
DTXSID5021758

>  <DTXCID>
DTXCID201758

>  <CASRN>
78-51-3

>  <EXPOCAST_MEDIAN_EXPOSURE_PREDICTION_MG/KG-BW/DAY>
4.51E-05

>  <BIOCONCENTRATION_FACTOR_TEST_PRED>
6.09537

>  <BOILING_POINT_DEGC_TEST_PRED>
353.92

>  <48HR_DAPHNIA_LC50_MOL/L_TEST_PRED>
2.39E-07

>  <DENSITY_G/CM^3_TEST_PRED>
0.986

>  <DEVTOX_TEST_PRED>
0.501

>  <96HR_FATHEAD_MINNOW_MOL/L_TEST_PRED>
4.90E-05

>  <FLASH_POINT_DEGC_TEST_PRED>
211.708

>  <MELTING_POINT_DEGC_TEST_PRED>
-63.425

>  <AMES_MUTAGENICITY_TEST_PRED>
0.045

>  <ORAL_RAT_LD50_MOL/KG_TEST_PRED>
0.0127938

>  <SURFACE_TENSION_DYN/CM_TEST_PRED>
31.448

>  <THERMAL_CONDUCTIVITY_MW/(M*K)_TEST_PRED>
161.541

>  <TETRAHYMENA_PYRIFORMIS_IGC50_MOL/L_TEST_PRED>
-

>  <VISCOSITY_CP_CP_TEST_PRED>
-

>  <VAPOR_PRESSURE_MMHG_TEST_PRED>
3.78E-06

>  <WATER_SOLUBILITY_MOL/L_TEST_PRED>
0.000592925

>  <ATMOSPHERIC_HYDROXYLATION_RATE_(AOH)_CM3/MOLECULE*SEC_OPERA_PRED>
1.73E-11

>  <BIOCONCENTRATION_FACTOR_OPERA_PRED>
5.75762

>  <BIODEGRADATION_HALF_LIFE_DAYS_DAYS_OPERA_PRED>
3.67992

>  <BOILING_POINT_DEGC_OPERA_PRED>
345.388

>  <HENRYS_LAW_ATM-M3/MOLE_OPERA_PRED>
7.29E-06

>  <OPERA_KM_DAYS_OPERA_PRED>
7.70993

>  <OCTANOL_AIR_PARTITION_COEFF_LOGKOA_OPERA_PRED>
11.7266

>  <SOIL_ADSORPTION_COEFFICIENT_KOC_L/KG_OPERA_PRED>
12390.5

>  <OCTANOL_WATER_PARTITION_LOGP_OPERA_PRED>
3.7494

>  <MELTING_POINT_DEGC_OPERA_PRED>
-69.8844

>  <VAPOR_PRESSURE_MMHG_OPERA_PRED>
1.71E-05

>  <WATER_SOLUBILITY_MOL/L_OPERA_PRED>
0.00274966

>  <Shape Index>
0.65385

>  <Molecular Flexibility>
0.79323

>  <Molecular Complexity>
0.44793

>  <Electronegative Atoms>
8

>  <Stereo Centers>
0

>  <Rotatable Bonds>
21

>  <Rings Closures>
0

>  <Aromatic Rings>
0

>  <Aromatic Atoms>
0

>  <Amides>
0

>  <Amines>
0

>  <Aromatic Nitrogens>
0

>  <Shape Index 2>
0.65385

>  <Molecular Flexibility 2>
0.79323

>  <Molecular Complexity 2>
0.44793

>  <Non-C/H Atoms>
8

>  <Electronegative Atoms 2>
8

>  <Stereo Centers 2>
0

>  <Rotatable Bonds 2>
21

>  <Rings Closures 2>
0

>  <Aromatic Rings 2>
0

>  <Aromatic Atoms 2>
0

>  <sp3-Atoms>
25

>  <Amides 2>
0

>  <Amines 2>
0

>  <Aromatic Nitrogens 2>
0

>  <Basic Nitrogens>
0

$$$$
Tris(2-chloroethyl) phosphate
Actelion Java MolfileCreator 2.0

  0  0  0  0  0  0              0 V3000
M  V30 BEGIN CTAB
M  V30 COUNTS 14 13 0 0 0
M  V30 BEGIN ATOM
M  V30 1 Cl 0.0 0.0 0.0 0
M  V30 2 C -1.3052 0.7525 0.0 0
M  V30 3 C -2.6104 0.0117 0.0 0
M  V30 4 O -3.9157 0.7643 0.0 0
M  V30 5 P -5.2209 0.0235 0.0 0
M  V30 6 O -5.2327 1.5286 0.0 0
M  V30 7 O -5.2327 -1.4581 0.0 0
M  V30 8 O -6.5261 0.776 0.0 0
M  V30 9 C -6.5379 -2.1989 0.0 0
M  V30 10 C -7.8314 0.0352 0.0 0
M  V30 11 C -6.5496 -3.6805 0.0 0
M  V30 12 C -9.1366 0.7878 0.0 0
M  V30 13 Cl -7.8549 -4.4213 0.0 0
M  V30 14 Cl -10.4418 0.047 0.0 0
M  V30 END ATOM
M  V30 BEGIN BOND
M  V30 1 1 1 2
M  V30 2 1 2 3
M  V30 3 1 3 4
M  V30 4 1 4 5
M  V30 5 2 5 6
M  V30 6 1 5 7
M  V30 7 1 5 8
M  V30 8 1 7 9
M  V30 9 1 8 10
M  V30 10 1 9 11
M  V30 11 1 10 12
M  V30 12 1 11 13
M  V30 13 1 12 14
M  V30 END BOND
M  V30 END CTAB
M  END
>  <Molecule Name>
Tris(2-chloroethyl) phosphate

>  <Order (spectra)>
180

>  <NAME>
Tris(2-chloroethyl) phosphate

>  <Molecular Formula>
C6H12O4Cl3P

>  <Monoisotopic Mass>
283.953878

>  <SMILES>
ClCCOP(=O)(OCCCl)OCCCl

>  <InChI>
InChI=1S/C6H12Cl3O4P/c7-1-4-11-14(10,12-5-2-8)13-6-3-9/h1-6H2

>  <InChIKey>
HQUQLFOMPYWACS-UHFFFAOYSA-N

>  <Kingdom>
Organic compounds

>  <Superclass>
Organic acids and derivatives

>  <Class>
Organic phosphoric acids and derivatives

>  <Subclass>
Phosphate esters

>  <Parent Level 1>
Alkyl phosphates

>  <Parent Level 2>
Trialkyl phosphates

>  <Parent Level 3>


>  <cLogP>
1.1866

>  <cLogS>
-1.81

>  <Druglikeness>
-18.491

>  <NP-class probability>
0.68

>  <SmilesFragFp 3>


>  <MS_READY_SMILES>
ClCCOP(=O)(OCCCl)OCCCl

>  <MS_READY_InChI>
InChI=1S/C6H12Cl3O4P/c7-1-4-11-14(10,12-5-2-8)13-6-3-9/h1-6H2

>  <QSAR_READY_SMILES>
ClCCOP(=O)(OCCCl)OCCCl

>  <QSAR_READY_InChI>
InChI=1S/C6H12Cl3O4P/c7-1-4-11-14(10,12-5-2-8)13-6-3-9/h1-6H2

>  <DTXSID>
DTXSID5021411

>  <DTXCID>
DTXCID601411

>  <CASRN>
115-96-8

>  <EXPOCAST_MEDIAN_EXPOSURE_PREDICTION_MG/KG-BW/DAY>
1.31E-06

>  <BIOCONCENTRATION_FACTOR_TEST_PRED>
5.01187

>  <BOILING_POINT_DEGC_TEST_PRED>
295.075

>  <48HR_DAPHNIA_LC50_MOL/L_TEST_PRED>
7.78E-08

>  <DENSITY_G/CM^3_TEST_PRED>
1.422

>  <DEVTOX_TEST_PRED>
0.483

>  <96HR_FATHEAD_MINNOW_MOL/L_TEST_PRED>
6.07E-05

>  <FLASH_POINT_DEGC_TEST_PRED>
164.231

>  <MELTING_POINT_DEGC_TEST_PRED>
-9.58

>  <AMES_MUTAGENICITY_TEST_PRED>
0.976

>  <ORAL_RAT_LD50_MOL/KG_TEST_PRED>
0.00157036

>  <SURFACE_TENSION_DYN/CM_TEST_PRED>
37.229

>  <THERMAL_CONDUCTIVITY_MW/(M*K)_TEST_PRED>
137.63

>  <TETRAHYMENA_PYRIFORMIS_IGC50_MOL/L_TEST_PRED>
0.000879023

>  <VISCOSITY_CP_CP_TEST_PRED>
3.96278

>  <VAPOR_PRESSURE_MMHG_TEST_PRED>
0.000645654

>  <WATER_SOLUBILITY_MOL/L_TEST_PRED>
0.00506991

>  <ATMOSPHERIC_HYDROXYLATION_RATE_(AOH)_CM3/MOLECULE*SEC_OPERA_PRED>
2.90E-11

>  <BIOCONCENTRATION_FACTOR_OPERA_PRED>
1.28864

>  <BIODEGRADATION_HALF_LIFE_DAYS_DAYS_OPERA_PRED>
3.68021

>  <BOILING_POINT_DEGC_OPERA_PRED>
329.906

>  <HENRYS_LAW_ATM-M3/MOLE_OPERA_PRED>
1.26E-07

>  <OPERA_KM_DAYS_OPERA_PRED>
0.218957

>  <OCTANOL_AIR_PARTITION_COEFF_LOGKOA_OPERA_PRED>
8.41392

>  <SOIL_ADSORPTION_COEFFICIENT_KOC_L/KG_OPERA_PRED>
14.5644

>  <OCTANOL_WATER_PARTITION_LOGP_OPERA_PRED>
1.44108

>  <MELTING_POINT_DEGC_OPERA_PRED>
-34.9682

>  <VAPOR_PRESSURE_MMHG_OPERA_PRED>
0.0608845

>  <WATER_SOLUBILITY_MOL/L_OPERA_PRED>
0.0245937

>  <Shape Index>
0.64286

>  <Molecular Flexibility>
0.84778

>  <Molecular Complexity>
0.50742

>  <Electronegative Atoms>
8

>  <Stereo Centers>
0

>  <Rotatable Bonds>
9

>  <Rings Closures>
0

>  <Aromatic Rings>
0

>  <Aromatic Atoms>
0

>  <Amides>
0

>  <Amines>
0

>  <Aromatic Nitrogens>
0

>  <Shape Index 2>
0.64286

>  <Molecular Flexibility 2>
0.84778

>  <Molecular Complexity 2>
0.50742

>  <Non-C/H Atoms>
8

>  <Electronegative Atoms 2>
8

>  <Stereo Centers 2>
0

>  <Rotatable Bonds 2>
9

>  <Rings Closures 2>
0

>  <Aromatic Rings 2>
0

>  <Aromatic Atoms 2>
0

>  <sp3-Atoms>
10

>  <Amides 2>
0

>  <Amines 2>
0

>  <Aromatic Nitrogens 2>
0

>  <Basic Nitrogens>
0

$$$$
Tris(1-chloro-2-propyl) phosphate
Actelion Java MolfileCreator 2.0

  0  0  0  0  0  0              0 V3000
M  V30 BEGIN CTAB
M  V30 COUNTS 17 16 0 0 0
M  V30 BEGIN ATOM
M  V30 1 Cl 0.0 0.0 0.0 0
M  V30 2 C -1.307 0.7536 0.0 0
M  V30 3 C -2.6141 0.0235 0.0 0
M  V30 4 O -3.9212 0.7771 0.0 0
M  V30 5 C -2.6259 -1.4601 0.0 0
M  V30 6 P -5.2283 0.0471 0.0 0
M  V30 7 O -5.24 1.5543 0.0 0
M  V30 8 O -5.24 -1.4366 0.0 0
M  V30 9 O -6.5353 0.8007 0.0 0
M  V30 10 C -6.5471 -2.1666 0.0 0
M  V30 11 C -6.5471 2.3079 0.0 0
M  V30 12 C -6.5589 -3.6503 0.0 0
M  V30 13 C -7.8542 -1.4012 0.0 0
M  V30 14 C -7.8542 3.0616 0.0 0
M  V30 15 C -5.2636 3.0616 0.0 0
M  V30 16 Cl -7.866 -4.3804 0.0 0
M  V30 17 Cl -7.866 4.5688 0.0 0
M  V30 END ATOM
M  V30 BEGIN BOND
M  V30 1 1 1 2
M  V30 2 1 2 3
M  V30 3 1 3 4
M  V30 4 1 3 5
M  V30 5 1 4 6
M  V30 6 2 6 7
M  V30 7 1 6 8
M  V30 8 1 6 9
M  V30 9 1 8 10
M  V30 10 1 9 11
M  V30 11 1 10 12
M  V30 12 1 10 13
M  V30 13 1 11 14
M  V30 14 1 11 15
M  V30 15 1 12 16
M  V30 16 1 14 17
M  V30 END BOND
M  V30 END CTAB
M  END
>  <Molecule Name>
Tris(1-chloro-2-propyl) phosphate

>  <Order (spectra)>
181

>  <NAME>
Tris(1-chloro-2-propyl) phosphate

>  <Molecular Formula>
C9H18O4Cl3P

>  <Monoisotopic Mass>
326.000828

>  <SMILES>
CC(CCl)OP(=O)(OC(C)CCl)OC(C)CCl

>  <InChI>
InChI=1S/C9H18Cl3O4P/c1-7(4-10)14-17(13,15-8(2)5-11)16-9(3)6-12/h7-9H,4-6H2,1-3H3

>  <InChIKey>
KVMPUXDNESXNOH-UHFFFAOYSA-N

>  <Kingdom>
Organic compounds

>  <Superclass>
Organic acids and derivatives

>  <Class>
Organic phosphoric acids and derivatives

>  <Subclass>
Phosphate esters

>  <Parent Level 1>
Alkyl phosphates

>  <Parent Level 2>
Trialkyl phosphates

>  <Parent Level 3>


>  <cLogP>
2.2645

>  <cLogS>
-2.944

>  <Druglikeness>
-18.781

>  <NP-class probability>
0.44

>  <SmilesFragFp 3>


>  <MS_READY_SMILES>
CC(CCl)OP(=O)(OC(C)CCl)OC(C)CCl

>  <MS_READY_InChI>
InChI=1S/C9H18Cl3O4P/c1-7(4-10)14-17(13,15-8(2)5-11)16-9(3)6-12/h7-9H,4-6H2,1-3H3

>  <QSAR_READY_SMILES>
CC(CCl)OP(=O)(OC(C)CCl)OC(C)CCl

>  <QSAR_READY_InChI>
InChI=1S/C9H18Cl3O4P/c1-7(4-10)14-17(13,15-8(2)5-11)16-9(3)6-12/h7-9H,4-6H2,1-3H3

>  <DTXSID>
DTXSID5026259

>  <DTXCID>
DTXCID106259

>  <CASRN>
13674-84-5

>  <EXPOCAST_MEDIAN_EXPOSURE_PREDICTION_MG/KG-BW/DAY>
5.29E-08

>  <BIOCONCENTRATION_FACTOR_TEST_PRED>
13.7721

>  <BOILING_POINT_DEGC_TEST_PRED>
317.718

>  <48HR_DAPHNIA_LC50_MOL/L_TEST_PRED>
3.03E-08

>  <DENSITY_G/CM^3_TEST_PRED>
1.323

>  <DEVTOX_TEST_PRED>
0.594

>  <96HR_FATHEAD_MINNOW_MOL/L_TEST_PRED>
0.00002208

>  <FLASH_POINT_DEGC_TEST_PRED>
177.78

>  <MELTING_POINT_DEGC_TEST_PRED>
-23.932

>  <AMES_MUTAGENICITY_TEST_PRED>
0.966

>  <ORAL_RAT_LD50_MOL/KG_TEST_PRED>
0.00125026

>  <SURFACE_TENSION_DYN/CM_TEST_PRED>
34.209

>  <THERMAL_CONDUCTIVITY_MW/(M*K)_TEST_PRED>
132.101

>  <TETRAHYMENA_PYRIFORMIS_IGC50_MOL/L_TEST_PRED>
0.000460257

>  <VISCOSITY_CP_CP_TEST_PRED>
5.74116

>  <VAPOR_PRESSURE_MMHG_TEST_PRED>
0.000295801

>  <WATER_SOLUBILITY_MOL/L_TEST_PRED>
0.00104713

>  <ATMOSPHERIC_HYDROXYLATION_RATE_(AOH)_CM3/MOLECULE*SEC_OPERA_PRED>
2.35E-11

>  <BIOCONCENTRATION_FACTOR_OPERA_PRED>
7.93381

>  <BIODEGRADATION_HALF_LIFE_DAYS_DAYS_OPERA_PRED>
3.67982

>  <BOILING_POINT_DEGC_OPERA_PRED>
282.795

>  <HENRYS_LAW_ATM-M3/MOLE_OPERA_PRED>
4.35E-07

>  <OPERA_KM_DAYS_OPERA_PRED>
0.0491101

>  <OCTANOL_AIR_PARTITION_COEFF_LOGKOA_OPERA_PRED>
8.84716

>  <SOIL_ADSORPTION_COEFFICIENT_KOC_L/KG_OPERA_PRED>
168.207

>  <OCTANOL_WATER_PARTITION_LOGP_OPERA_PRED>
2.59155

>  <MELTING_POINT_DEGC_OPERA_PRED>
-39.9969

>  <VAPOR_PRESSURE_MMHG_OPERA_PRED>
0.0037411

>  <WATER_SOLUBILITY_MOL/L_OPERA_PRED>
0.00362618

>  <Shape Index>
0.52941

>  <Molecular Flexibility>
0.75918

>  <Molecular Complexity>
0.54381

>  <Electronegative Atoms>
8

>  <Stereo Centers>
3

>  <Rotatable Bonds>
9

>  <Rings Closures>
0

>  <Aromatic Rings>
0

>  <Aromatic Atoms>
0

>  <Amides>
0

>  <Amines>
0

>  <Aromatic Nitrogens>
0

>  <Shape Index 2>
0.52941

>  <Molecular Flexibility 2>
0.75918

>  <Molecular Complexity 2>
0.54381

>  <Non-C/H Atoms>
8

>  <Electronegative Atoms 2>
8

>  <Stereo Centers 2>
3

>  <Rotatable Bonds 2>
9

>  <Rings Closures 2>
0

>  <Aromatic Rings 2>
0

>  <Aromatic Atoms 2>
0

>  <sp3-Atoms>
13

>  <Amides 2>
0

>  <Amines 2>
0

>  <Aromatic Nitrogens 2>
0

>  <Basic Nitrogens>
0

$$$$
Tris(2-ethylhexyl) phosphate
Actelion Java MolfileCreator 2.0

  0  0  0  0  0  0              0 V3000
M  V30 BEGIN CTAB
M  V30 COUNTS 29 28 0 0 0
M  V30 BEGIN ATOM
M  V30 1 P 0.0 0.0 0.0 0
M  V30 2 O -0.0118 -1.4908 0.0 0
M  V30 3 O 1.2897 -0.7336 0.0 0
M  V30 4 O -0.0118 1.5145 0.0 0
M  V30 5 O -1.3134 -0.7336 0.0 0
M  V30 6 C 2.5794 0.0236 0.0 0
M  V30 7 C 1.2779 2.2718 0.0 0
M  V30 8 C -2.6268 0.0236 0.0 0
M  V30 9 C 3.8692 -0.7099 0.0 0
M  V30 10 C 1.266 3.7863 0.0 0
M  V30 11 C -3.9402 -0.7099 0.0 0
M  V30 12 C 5.1589 0.0473 0.0 0
M  V30 13 C 3.8573 -2.2008 0.0 0
M  V30 14 C 2.5558 4.5436 0.0 0
M  V30 15 C -0.0473 4.5555 0.0 0
M  V30 16 C -5.2536 0.0473 0.0 0
M  V30 17 C -3.952 -2.2008 0.0 0
M  V30 18 C 6.4487 -0.6862 0.0 0
M  V30 19 C 5.1471 -2.9344 0.0 0
M  V30 20 C 2.5439 6.0582 0.0 0
M  V30 21 C -1.3607 3.8218 0.0 0
M  V30 22 C -6.567 -0.6862 0.0 0
M  V30 23 C -2.6623 -2.9344 0.0 0
M  V30 24 C 7.7384 0.0709 0.0 0
M  V30 25 C 3.8337 6.8155 0.0 0
M  V30 26 C -7.8804 0.0709 0.0 0
M  V30 27 C 9.0281 -0.6626 0.0 0
M  V30 28 C 3.8218 8.33 0.0 0
M  V30 29 C -9.1938 -0.6626 0.0 0
M  V30 END ATOM
M  V30 BEGIN BOND
M  V30 1 2 1 2
M  V30 2 1 1 3
M  V30 3 1 1 4
M  V30 4 1 1 5
M  V30 5 1 3 6
M  V30 6 1 4 7
M  V30 7 1 5 8
M  V30 8 1 6 9
M  V30 9 1 7 10
M  V30 10 1 8 11
M  V30 11 1 9 12
M  V30 12 1 9 13
M  V30 13 1 10 14
M  V30 14 1 10 15
M  V30 15 1 11 16
M  V30 16 1 11 17
M  V30 17 1 12 18
M  V30 18 1 13 19
M  V30 19 1 14 20
M  V30 20 1 15 21
M  V30 21 1 16 22
M  V30 22 1 17 23
M  V30 23 1 18 24
M  V30 24 1 20 25
M  V30 25 1 22 26
M  V30 26 1 24 27
M  V30 27 1 25 28
M  V30 28 1 26 29
M  V30 END BOND
M  V30 END CTAB
M  END
>  <Molecule Name>
Tris(2-ethylhexyl) phosphate

>  <Order (spectra)>
182

>  <NAME>
Tris(2-ethylhexyl) phosphate

>  <Molecular Formula>
C24H51O4P

>  <Monoisotopic Mass>
434.352497

>  <SMILES>
CCCCC(CC)COP(=O)(OCC(CC)CCCC)OCC(CC)CCCC

>  <InChI>
InChI=1S/C24H51O4P/c1-7-13-16-22(10-4)19-26-29(25,27-20-23(11-5)17-14-8-2)28-21-24(12-6)18-15-9-3/h22-24H,7-21H2,1-6H3

>  <InChIKey>
GTVWRXDRKAHEAD-UHFFFAOYSA-N

>  <Kingdom>
Organic compounds

>  <Superclass>
Organic acids and derivatives

>  <Class>
Organic phosphoric acids and derivatives

>  <Subclass>
Phosphate esters

>  <Parent Level 1>
Alkyl phosphates

>  <Parent Level 2>
Trialkyl phosphates

>  <Parent Level 3>


>  <cLogP>
7.9696

>  <cLogS>
-5.137

>  <Druglikeness>
-22.332

>  <NP-class probability>
0.21

>  <SmilesFragFp 3>


>  <MS_READY_SMILES>
CCCCC(CC)COP(=O)(OCC(CC)CCCC)OCC(CC)CCCC

>  <MS_READY_InChI>
InChI=1S/C24H51O4P/c1-7-13-16-22(10-4)19-26-29(25,27-20-23(11-5)17-14-8-2)28-21-24(12-6)18-15-9-3/h22-24H,7-21H2,1-6H3

>  <QSAR_READY_SMILES>
CCCCC(CC)COP(=O)(OCC(CC)CCCC)OCC(CC)CCCC

>  <QSAR_READY_InChI>
InChI=1S/C24H51O4P/c1-7-13-16-22(10-4)19-26-29(25,27-20-23(11-5)17-14-8-2)28-21-24(12-6)18-15-9-3/h22-24H,7-21H2,1-6H3

>  <DTXSID>
DTXSID0021414

>  <DTXCID>
DTXCID801414

>  <CASRN>
78-42-2

>  <EXPOCAST_MEDIAN_EXPOSURE_PREDICTION_MG/KG-BW/DAY>
1.03E-05

>  <BIOCONCENTRATION_FACTOR_TEST_PRED>
42.3643

>  <BOILING_POINT_DEGC_TEST_PRED>
394.205

>  <48HR_DAPHNIA_LC50_MOL/L_TEST_PRED>
1.71E-08

>  <DENSITY_G/CM^3_TEST_PRED>
0.866

>  <DEVTOX_TEST_PRED>
0.392

>  <96HR_FATHEAD_MINNOW_MOL/L_TEST_PRED>
3.40E-07

>  <FLASH_POINT_DEGC_TEST_PRED>
215.983

>  <MELTING_POINT_DEGC_TEST_PRED>
-45.16

>  <AMES_MUTAGENICITY_TEST_PRED>
0.094

>  <ORAL_RAT_LD50_MOL/KG_TEST_PRED>
0.0467735

>  <SURFACE_TENSION_DYN/CM_TEST_PRED>
28.838

>  <THERMAL_CONDUCTIVITY_MW/(M*K)_TEST_PRED>
149.636

>  <TETRAHYMENA_PYRIFORMIS_IGC50_MOL/L_TEST_PRED>
-

>  <VISCOSITY_CP_CP_TEST_PRED>
15.0314

>  <VAPOR_PRESSURE_MMHG_TEST_PRED>
2.80E-06

>  <WATER_SOLUBILITY_MOL/L_TEST_PRED>
1.18E-05

>  <ATMOSPHERIC_HYDROXYLATION_RATE_(AOH)_CM3/MOLECULE*SEC_OPERA_PRED>
1.74E-11

>  <BIOCONCENTRATION_FACTOR_OPERA_PRED>
50.1745

>  <BIODEGRADATION_HALF_LIFE_DAYS_DAYS_OPERA_PRED>
4.22722

>  <BOILING_POINT_DEGC_OPERA_PRED>
411.783

>  <HENRYS_LAW_ATM-M3/MOLE_OPERA_PRED>
2.43E-06

>  <OPERA_KM_DAYS_OPERA_PRED>
0.513773

>  <OCTANOL_AIR_PARTITION_COEFF_LOGKOA_OPERA_PRED>
11.6938

>  <SOIL_ADSORPTION_COEFFICIENT_KOC_L/KG_OPERA_PRED>
12716

>  <OCTANOL_WATER_PARTITION_LOGP_OPERA_PRED>
9.20331

>  <MELTING_POINT_DEGC_OPERA_PRED>
-73.9686

>  <VAPOR_PRESSURE_MMHG_OPERA_PRED>
8.28E-08

>  <WATER_SOLUBILITY_MOL/L_OPERA_PRED>
2.41E-06

>  <Shape Index>
0.51724

>  <Molecular Flexibility>
0.82322

>  <Molecular Complexity>
0.53395

>  <Electronegative Atoms>
5

>  <Stereo Centers>
3

>  <Rotatable Bonds>
21

>  <Rings Closures>
0

>  <Aromatic Rings>
0

>  <Aromatic Atoms>
0

>  <Amides>
0

>  <Amines>
0

>  <Aromatic Nitrogens>
0

>  <Shape Index 2>
0.51724

>  <Molecular Flexibility 2>
0.82322

>  <Molecular Complexity 2>
0.53395

>  <Non-C/H Atoms>
5

>  <Electronegative Atoms 2>
5

>  <Stereo Centers 2>
3

>  <Rotatable Bonds 2>
21

>  <Rings Closures 2>
0

>  <Aromatic Rings 2>
0

>  <Aromatic Atoms 2>
0

>  <sp3-Atoms>
28

>  <Amides 2>
0

>  <Amines 2>
0

>  <Aromatic Nitrogens 2>
0

>  <Basic Nitrogens>
0

$$$$
Triphenyl phosphate
Actelion Java MolfileCreator 2.0

  0  0  0  0  0  0              0 V3000
M  V30 BEGIN CTAB
M  V30 COUNTS 23 25 0 0 0
M  V30 BEGIN ATOM
M  V30 1 P 0.0 0.0 0.0 0
M  V30 2 O 1.2891 -0.7332 0.0 0
M  V30 3 O 1.2891 0.7569 0.0 0
M  V30 4 O -0.0118 -1.4901 0.0 0
M  V30 5 O -1.3127 0.7569 0.0 0
M  V30 6 C 2.5782 0.0236 0.0 0
M  V30 7 C -1.3246 -2.2234 0.0 0
M  V30 8 C -1.3246 2.2707 0.0 0
M  V30 9 C 2.5664 -1.4665 0.0 0
M  V30 10 C 3.8674 0.7805 0.0 0
M  V30 11 C -2.6374 -1.4665 0.0 0
M  V30 12 C -1.3364 -3.7136 0.0 0
M  V30 13 C -2.6374 3.0277 0.0 0
M  V30 14 C -0.0354 3.0395 0.0 0
M  V30 15 C 3.8555 -2.1998 0.0 0
M  V30 16 C 5.1565 0.0473 0.0 0
M  V30 17 C -3.9502 -2.1998 0.0 0
M  V30 18 C -2.6492 -4.4469 0.0 0
M  V30 19 C -2.6492 4.5415 0.0 0
M  V30 20 C -0.0473 4.5533 0.0 0
M  V30 21 C 5.1447 -1.4428 0.0 0
M  V30 22 C -3.962 -3.69 0.0 0
M  V30 23 C -1.3601 5.3103 0.0 0
M  V30 END ATOM
M  V30 BEGIN BOND
M  V30 1 2 1 2
M  V30 2 1 1 3
M  V30 3 1 1 4
M  V30 4 1 1 5
M  V30 5 1 3 6
M  V30 6 1 4 7
M  V30 7 1 5 8
M  V30 8 2 6 9
M  V30 9 1 6 10
M  V30 10 2 7 11
M  V30 11 1 7 12
M  V30 12 2 8 13
M  V30 13 1 8 14
M  V30 14 1 9 15
M  V30 15 2 10 16
M  V30 16 1 11 17
M  V30 17 2 12 18
M  V30 18 1 13 19
M  V30 19 2 14 20
M  V30 20 2 15 21
M  V30 21 2 17 22
M  V30 22 2 19 23
M  V30 23 1 16 21
M  V30 24 1 18 22
M  V30 25 1 20 23
M  V30 END BOND
M  V30 END CTAB
M  END
>  <Molecule Name>
Triphenyl phosphate

>  <Order (spectra)>
183

>  <NAME>
Triphenyl phosphate

>  <Molecular Formula>
C18H15O4P

>  <Monoisotopic Mass>
326.070797

>  <SMILES>
O=P(OC1=CC=CC=C1)(OC1=CC=CC=C1)OC1=CC=CC=C1

>  <InChI>
InChI=1S/C18H15O4P/c19-23(20-16-10-4-1-5-11-16,21-17-12-6-2-7-13-17)22-18-14-8-3-9-15-18/h1-15H

>  <InChIKey>
XZZNDPSIHUTMOC-UHFFFAOYSA-N

>  <Kingdom>
Organic compounds

>  <Superclass>
Organic acids and derivatives

>  <Class>
Organic phosphoric acids and derivatives

>  <Subclass>
Phosphate esters

>  <Parent Level 1>
Aryl phosphates

>  <Parent Level 2>
Aryl phosphotriesters

>  <Parent Level 3>


>  <cLogP>
4.2853

>  <cLogS>
-4.546

>  <Druglikeness>
-18.505

>  <NP-class probability>
0.58

>  <SmilesFragFp 3>


>  <MS_READY_SMILES>
O=P(OC1=CC=CC=C1)(OC1=CC=CC=C1)OC1=CC=CC=C1

>  <MS_READY_InChI>
InChI=1S/C18H15O4P/c19-23(20-16-10-4-1-5-11-16,21-17-12-6-2-7-13-17)22-18-14-8-3-9-15-18/h1-15H

>  <QSAR_READY_SMILES>
O=P(OC1=CC=CC=C1)(OC1=CC=CC=C1)OC1=CC=CC=C1

>  <QSAR_READY_InChI>
InChI=1S/C18H15O4P/c19-23(20-16-10-4-1-5-11-16,21-17-12-6-2-7-13-17)22-18-14-8-3-9-15-18/h1-15H

>  <DTXSID>
DTXSID1021952

>  <DTXCID>
DTXCID201952

>  <CASRN>
115-86-6

>  <EXPOCAST_MEDIAN_EXPOSURE_PREDICTION_MG/KG-BW/DAY>
2.30E-07

>  <BIOCONCENTRATION_FACTOR_TEST_PRED>
50.67

>  <BOILING_POINT_DEGC_TEST_PRED>
385.59

>  <48HR_DAPHNIA_LC50_MOL/L_TEST_PRED>
1.70E-07

>  <DENSITY_G/CM^3_TEST_PRED>
1.24

>  <DEVTOX_TEST_PRED>
0.5

>  <96HR_FATHEAD_MINNOW_MOL/L_TEST_PRED>
1.17E-06

>  <FLASH_POINT_DEGC_TEST_PRED>
202.43

>  <MELTING_POINT_DEGC_TEST_PRED>
48.8

>  <AMES_MUTAGENICITY_TEST_PRED>
0.31

>  <ORAL_RAT_LD50_MOL/KG_TEST_PRED>
0.00691831

>  <SURFACE_TENSION_DYN/CM_TEST_PRED>
41.17

>  <THERMAL_CONDUCTIVITY_MW/(M*K)_TEST_PRED>
235.63

>  <TETRAHYMENA_PYRIFORMIS_IGC50_MOL/L_TEST_PRED>
0.000042658

>  <VISCOSITY_CP_CP_TEST_PRED>
22.3872

>  <VAPOR_PRESSURE_MMHG_TEST_PRED>
2.75E-06

>  <WATER_SOLUBILITY_MOL/L_TEST_PRED>
8.51E-06

>  <ATMOSPHERIC_HYDROXYLATION_RATE_(AOH)_CM3/MOLECULE*SEC_OPERA_PRED>
2.12E-11

>  <BIOCONCENTRATION_FACTOR_OPERA_PRED>
189.984

>  <BIODEGRADATION_HALF_LIFE_DAYS_DAYS_OPERA_PRED>
6.10807

>  <BOILING_POINT_DEGC_OPERA_PRED>
403.986

>  <HENRYS_LAW_ATM-M3/MOLE_OPERA_PRED>
1.86E-06

>  <OPERA_KM_DAYS_OPERA_PRED>
0.173897

>  <OCTANOL_AIR_PARTITION_COEFF_LOGKOA_OPERA_PRED>
10.7977

>  <SOIL_ADSORPTION_COEFFICIENT_KOC_L/KG_OPERA_PRED>
21731.8

>  <OCTANOL_WATER_PARTITION_LOGP_OPERA_PRED>
4.58923

>  <MELTING_POINT_DEGC_OPERA_PRED>
50.5009

>  <VAPOR_PRESSURE_MMHG_OPERA_PRED>
6.28E-06

>  <WATER_SOLUBILITY_MOL/L_OPERA_PRED>
5.86E-06

>  <Shape Index>
0.47826

>  <Molecular Flexibility>
0.59757

>  <Molecular Complexity>
0.5406

>  <Electronegative Atoms>
5

>  <Stereo Centers>
0

>  <Rotatable Bonds>
6

>  <Rings Closures>
3

>  <Aromatic Rings>
3

>  <Aromatic Atoms>
18

>  <Amides>
0

>  <Amines>
0

>  <Aromatic Nitrogens>
0

>  <Shape Index 2>
0.47826

>  <Molecular Flexibility 2>
0.59757

>  <Molecular Complexity 2>
0.5406

>  <Non-C/H Atoms>
5

>  <Electronegative Atoms 2>
5

>  <Stereo Centers 2>
0

>  <Rotatable Bonds 2>
6

>  <Rings Closures 2>
3

>  <Aromatic Rings 2>
3

>  <Aromatic Atoms 2>
18

>  <sp3-Atoms>
4

>  <Amides 2>
0

>  <Amines 2>
0

>  <Aromatic Nitrogens 2>
0

>  <Basic Nitrogens>
0

$$$$
Dicrotophos
Actelion Java MolfileCreator 2.0

  0  0  0  0  0  0              0 V3000
M  V30 BEGIN CTAB
M  V30 COUNTS 15 14 0 0 0
M  V30 BEGIN ATOM
M  V30 1 P 0.0 0.0 0.0 0
M  V30 2 O 1.2865 -0.7436 0.0 0
M  V30 3 O -1.3101 0.7554 0.0 0
M  V30 4 O 1.2865 0.7554 0.0 0
M  V30 5 O -0.0118 -1.4872 0.0 0
M  V30 6 C -2.6203 0.0118 0.0 0
M  V30 7 C 2.5731 0.0118 0.0 0
M  V30 8 C -1.3219 -2.2308 0.0 0
M  V30 9 C -3.9305 0.7672 0.0 0
M  V30 10 C -2.6321 -1.4754 0.0 0
M  V30 11 C -5.2407 0.0236 0.0 0
M  V30 12 O -5.2525 -1.4636 0.0 0
M  V30 13 N -6.5509 0.779 0.0 0
M  V30 14 C -6.5627 2.2898 0.0 0
M  V30 15 C -7.8611 0.0354 0.0 0
M  V30 END ATOM
M  V30 BEGIN BOND
M  V30 1 2 1 2
M  V30 2 1 1 3
M  V30 3 1 1 4
M  V30 4 1 1 5
M  V30 5 1 3 6
M  V30 6 1 4 7
M  V30 7 1 5 8
M  V30 8 2 6 9
M  V30 9 1 6 10
M  V30 10 1 9 11
M  V30 11 2 11 12
M  V30 12 1 11 13
M  V30 13 1 13 14
M  V30 14 1 13 15
M  V30 END BOND
M  V30 END CTAB
M  END
>  <Molecule Name>
Dicrotophos

>  <Order (spectra)>
242

>  <NAME>
Dicrotophos

>  <Molecular Formula>
C8H16NO5P

>  <Monoisotopic Mass>
237.076611

>  <SMILES>
COP(=O)(OC)O\C(C)=C\C(=O)N(C)C

>  <InChI>
InChI=1S/C8H16NO5P/c1-7(6-8(10)9(2)3)14-15(11,12-4)13-5/h6H,1-5H3

>  <InChIKey>
VEENJGZXVHKXNB-VOTSOKGWSA-N

>  <Kingdom>
Organic compounds

>  <Superclass>
Organic acids and derivatives

>  <Class>
Organic phosphoric acids and derivatives

>  <Subclass>
Phosphate esters

>  <Parent Level 1>
Alkyl phosphates

>  <Parent Level 2>
Dialkyl phosphates

>  <Parent Level 3>


>  <cLogP>
0.0466

>  <cLogS>
0.138

>  <Druglikeness>
-22.572

>  <NP-class probability>
0.5

>  <SmilesFragFp 3>


>  <MS_READY_SMILES>
COP(=O)(OC)OC(C)=CC(=O)N(C)C

>  <MS_READY_InChI>
InChI=1S/C8H16NO5P/c1-7(6-8(10)9(2)3)14-15(11,12-4)13-5/h6H,1-5H3

>  <QSAR_READY_SMILES>
COP(=O)(OC)OC(C)=CC(=O)N(C)C

>  <QSAR_READY_InChI>
InChI=1S/C8H16NO5P/c1-7(6-8(10)9(2)3)14-15(11,12-4)13-5/h6H,1-5H3

>  <DTXSID>
DTXSID9023914

>  <DTXCID>
DTXCID003914

>  <CASRN>
141-66-2

>  <EXPOCAST_MEDIAN_EXPOSURE_PREDICTION_MG/KG-BW/DAY>
1.10E-07

>  <BIOCONCENTRATION_FACTOR_TEST_PRED>
1.64437

>  <BOILING_POINT_DEGC_TEST_PRED>
299.282

>  <48HR_DAPHNIA_LC50_MOL/L_TEST_PRED>
1.51E-07

>  <DENSITY_G/CM^3_TEST_PRED>
1.149

>  <DEVTOX_TEST_PRED>
0.694

>  <96HR_FATHEAD_MINNOW_MOL/L_TEST_PRED>
0.000576766

>  <FLASH_POINT_DEGC_TEST_PRED>
140.784

>  <MELTING_POINT_DEGC_TEST_PRED>
1.814

>  <AMES_MUTAGENICITY_TEST_PRED>
0.421

>  <ORAL_RAT_LD50_MOL/KG_TEST_PRED>
3.00E-05

>  <SURFACE_TENSION_DYN/CM_TEST_PRED>
-

>  <THERMAL_CONDUCTIVITY_MW/(M*K)_TEST_PRED>
156.061

>  <TETRAHYMENA_PYRIFORMIS_IGC50_MOL/L_TEST_PRED>
0.0047863

>  <VISCOSITY_CP_CP_TEST_PRED>
10.7895

>  <VAPOR_PRESSURE_MMHG_TEST_PRED>
0.000208449

>  <WATER_SOLUBILITY_MOL/L_TEST_PRED>
0.0542001

>  <ATMOSPHERIC_HYDROXYLATION_RATE_(AOH)_CM3/MOLECULE*SEC_OPERA_PRED>
2.78E-11

>  <BIOCONCENTRATION_FACTOR_OPERA_PRED>
0.922621

>  <BIODEGRADATION_HALF_LIFE_DAYS_DAYS_OPERA_PRED>
4.13853

>  <BOILING_POINT_DEGC_OPERA_PRED>
309.891

>  <HENRYS_LAW_ATM-M3/MOLE_OPERA_PRED>
5.04E-11

>  <OPERA_KM_DAYS_OPERA_PRED>
0.310396

>  <OCTANOL_AIR_PARTITION_COEFF_LOGKOA_OPERA_PRED>
7.37958

>  <SOIL_ADSORPTION_COEFFICIENT_KOC_L/KG_OPERA_PRED>
45.6565

>  <OCTANOL_WATER_PARTITION_LOGP_OPERA_PRED>
0.000299434

>  <MELTING_POINT_DEGC_OPERA_PRED>
-16.0635

>  <VAPOR_PRESSURE_MMHG_OPERA_PRED>
0.00015999

>  <WATER_SOLUBILITY_MOL/L_OPERA_PRED>
4.20595

>  <Shape Index>
0.6

>  <Molecular Flexibility>
0.76269

>  <Molecular Complexity>
0.51193

>  <Electronegative Atoms>
7

>  <Stereo Centers>
0

>  <Rotatable Bonds>
5

>  <Rings Closures>
0

>  <Aromatic Rings>
0

>  <Aromatic Atoms>
0

>  <Amides>
1

>  <Amines>
0

>  <Aromatic Nitrogens>
0

>  <Shape Index 2>
0.6

>  <Molecular Flexibility 2>
0.76269

>  <Molecular Complexity 2>
0.51193

>  <Non-C/H Atoms>
7

>  <Electronegative Atoms 2>
7

>  <Stereo Centers 2>
0

>  <Rotatable Bonds 2>
5

>  <Rings Closures 2>
0

>  <Aromatic Rings 2>
0

>  <Aromatic Atoms 2>
0

>  <sp3-Atoms>
9

>  <Amides 2>
1

>  <Amines 2>
0

>  <Aromatic Nitrogens 2>
0

>  <Basic Nitrogens>
0

$$$$
Monocrotophos
Actelion Java MolfileCreator 2.0

  0  0  0  0  0  0              0 V3000
M  V30 BEGIN CTAB
M  V30 COUNTS 14 13 0 0 0
M  V30 BEGIN ATOM
M  V30 1 P 0.0 0.0 0.0 0
M  V30 2 O 1.2873 -0.744 0.0 0
M  V30 3 O -1.3109 0.7558 0.0 0
M  V30 4 O 1.2873 0.7558 0.0 0
M  V30 5 O -0.0118 -1.488 0.0 0
M  V30 6 C -2.6218 0.0118 0.0 0
M  V30 7 C 2.5746 0.0118 0.0 0
M  V30 8 C -1.3227 -2.2321 0.0 0
M  V30 9 C -3.9327 0.7676 0.0 0
M  V30 10 C -2.6336 -1.4762 0.0 0
M  V30 11 C -5.2437 0.0236 0.0 0
M  V30 12 O -5.2555 -1.4644 0.0 0
M  V30 13 N -6.5546 0.7794 0.0 0
M  V30 14 C -7.8655 0.0354 0.0 0
M  V30 END ATOM
M  V30 BEGIN BOND
M  V30 1 2 1 2
M  V30 2 1 1 3
M  V30 3 1 1 4
M  V30 4 1 1 5
M  V30 5 1 3 6
M  V30 6 1 4 7
M  V30 7 1 5 8
M  V30 8 2 6 9
M  V30 9 1 6 10
M  V30 10 1 9 11
M  V30 11 2 11 12
M  V30 12 1 11 13
M  V30 13 1 13 14
M  V30 END BOND
M  V30 END CTAB
M  END
>  <Molecule Name>
Monocrotophos

>  <Order (spectra)>
243

>  <NAME>
Monocrotophos

>  <Molecular Formula>
C7H14NO5P

>  <Monoisotopic Mass>
223.060961

>  <SMILES>
CNC(=O)\C=C(/C)OP(=O)(OC)OC

>  <InChI>
InChI=1S/C7H14NO5P/c1-6(5-7(9)8-2)13-14(10,11-3)12-4/h5H,1-4H3,(H,8,9)

>  <InChIKey>
KRTSDMXIXPKRQR-AATRIKPKSA-N

>  <Kingdom>
Organic compounds

>  <Superclass>
Organic acids and derivatives

>  <Class>
Organic phosphoric acids and derivatives

>  <Subclass>
Phosphate esters

>  <Parent Level 1>
Alkyl phosphates

>  <Parent Level 2>
Dialkyl phosphates

>  <Parent Level 3>


>  <cLogP>
-0.2199

>  <cLogS>
-0.224

>  <Druglikeness>
-23.492

>  <NP-class probability>
0.53

>  <SmilesFragFp 3>


>  <MS_READY_SMILES>
[H]C(C(=O)NC)=C(C)OP(=O)(OC)OC

>  <MS_READY_InChI>
InChI=1S/C7H14NO5P/c1-6(5-7(9)8-2)13-14(10,11-3)12-4/h5H,1-4H3,(H,8,9)

>  <QSAR_READY_SMILES>
[H]C(C(=O)NC)=C(C)OP(=O)(OC)OC

>  <QSAR_READY_InChI>
InChI=1S/C7H14NO5P/c1-6(5-7(9)8-2)13-14(10,11-3)12-4/h5H,1-4H3,(H,8,9)

>  <DTXSID>
DTXSID9034816

>  <DTXCID>
DTXCID7014816

>  <CASRN>
6923-22-4

>  <EXPOCAST_MEDIAN_EXPOSURE_PREDICTION_MG/KG-BW/DAY>
1.80E-07

>  <BIOCONCENTRATION_FACTOR_TEST_PRED>
1.11686

>  <BOILING_POINT_DEGC_TEST_PRED>
295.471

>  <48HR_DAPHNIA_LC50_MOL/L_TEST_PRED>
1.91E-07

>  <DENSITY_G/CM^3_TEST_PRED>
1.184

>  <DEVTOX_TEST_PRED>
0.746

>  <96HR_FATHEAD_MINNOW_MOL/L_TEST_PRED>
0.000521195

>  <FLASH_POINT_DEGC_TEST_PRED>
137.795

>  <MELTING_POINT_DEGC_TEST_PRED>
5.614

>  <AMES_MUTAGENICITY_TEST_PRED>
0.564

>  <ORAL_RAT_LD50_MOL/KG_TEST_PRED>
4.20E-05

>  <SURFACE_TENSION_DYN/CM_TEST_PRED>
-

>  <THERMAL_CONDUCTIVITY_MW/(M*K)_TEST_PRED>
156.133

>  <TETRAHYMENA_PYRIFORMIS_IGC50_MOL/L_TEST_PRED>
0.00498884

>  <VISCOSITY_CP_CP_TEST_PRED>
13.4896

>  <VAPOR_PRESSURE_MMHG_TEST_PRED>
5.73E-05

>  <WATER_SOLUBILITY_MOL/L_TEST_PRED>
0.384592

>  <ATMOSPHERIC_HYDROXYLATION_RATE_(AOH)_CM3/MOLECULE*SEC_OPERA_PRED>
2.77E-11

>  <BIOCONCENTRATION_FACTOR_OPERA_PRED>
0.922318

>  <BIODEGRADATION_HALF_LIFE_DAYS_DAYS_OPERA_PRED>
4.13837

>  <BOILING_POINT_DEGC_OPERA_PRED>
301.778

>  <HENRYS_LAW_ATM-M3/MOLE_OPERA_PRED>
2.28E-10

>  <OPERA_KM_DAYS_OPERA_PRED>
0.252442

>  <OCTANOL_AIR_PARTITION_COEFF_LOGKOA_OPERA_PRED>
8.5795

>  <SOIL_ADSORPTION_COEFFICIENT_KOC_L/KG_OPERA_PRED>
1.00779

>  <OCTANOL_WATER_PARTITION_LOGP_OPERA_PRED>
-0.199428

>  <MELTING_POINT_DEGC_OPERA_PRED>
54.9799

>  <VAPOR_PRESSURE_MMHG_OPERA_PRED>
2.19E-06

>  <WATER_SOLUBILITY_MOL/L_OPERA_PRED>
4.17057

>  <Shape Index>
0.64286

>  <Molecular Flexibility>
0.74532

>  <Molecular Complexity>
0.55537

>  <Electronegative Atoms>
7

>  <Stereo Centers>
0

>  <Rotatable Bonds>
5

>  <Rings Closures>
0

>  <Aromatic Rings>
0

>  <Aromatic Atoms>
0

>  <Amides>
1

>  <Amines>
0

>  <Aromatic Nitrogens>
0

>  <Shape Index 2>
0.64286

>  <Molecular Flexibility 2>
0.74532

>  <Molecular Complexity 2>
0.55537

>  <Non-C/H Atoms>
7

>  <Electronegative Atoms 2>
7

>  <Stereo Centers 2>
0

>  <Rotatable Bonds 2>
5

>  <Rings Closures 2>
0

>  <Aromatic Rings 2>
0

>  <Aromatic Atoms 2>
0

>  <sp3-Atoms>
8

>  <Amides 2>
1

>  <Amines 2>
0

>  <Aromatic Nitrogens 2>
0

>  <Basic Nitrogens>
0

$$$$
Endosulfan sulphate
Actelion Java MolfileCreator 2.0

  0  0  0  0  0  0              0 V3000
M  V30 BEGIN CTAB
M  V30 COUNTS 20 22 0 0 0
M  V30 BEGIN ATOM
M  V30 1 Cl 0.0 0.0 0.0 0
M  V30 2 C -1.2452 -0.7056 0.0 0
M  V30 3 C -2.5597 -0.1106 0.0 0
M  V30 4 C -1.4113 -2.1169 0.0 0
M  V30 5 Cl -2.8641 1.3006 0.0 0
M  V30 6 C -3.5282 -1.1622 0.0 0
M  V30 7 Cl -0.0968 -2.6289 0.0 0
M  V30 8 C -2.8226 -2.3937 0.0 0
M  V30 9 C -2.366 -3.6804 0.0 0
M  V30 10 Cl -4.815 -0.5119 0.0 0
M  V30 11 C -4.0817 -2.9056 0.0 0
M  V30 12 Cl -4.0264 -3.4867 0.0 0
M  V30 13 Cl -2.8641 -3.9987 0.0 0
M  V30 14 C -2.2553 -5.0503 0.0 0
M  V30 15 C -5.2025 -3.722 0.0 0
M  V30 16 O -3.127 -6.1848 0.0 0
M  V30 17 O -5.493 -5.1056 0.0 0
M  V30 18 S -4.566 -6.2125 0.0 0
M  V30 19 O -5.7421 -7.0427 0.0 0
M  V30 20 O -4.4276 -7.6238 0.0 0
M  V30 END ATOM
M  V30 BEGIN BOND
M  V30 1 1 1 2
M  V30 2 2 2 3
M  V30 3 1 2 4
M  V30 4 1 3 5
M  V30 5 1 3 6
M  V30 6 1 4 7
M  V30 7 1 4 8
M  V30 8 1 4 9
M  V30 9 1 6 10
M  V30 10 1 6 11
M  V30 11 1 8 12
M  V30 12 1 8 13
M  V30 13 1 9 14
M  V30 14 1 11 15
M  V30 15 1 14 16
M  V30 16 1 15 17
M  V30 17 1 16 18
M  V30 18 2 18 19
M  V30 19 2 18 20
M  V30 20 1 6 8
M  V30 21 1 9 11
M  V30 22 1 17 18
M  V30 END BOND
M  V30 END CTAB
M  END
>  <Molecule Name>
Endosulfan sulphate

>  <Order (spectra)>
160

>  <NAME>
Endosulfan sulphate

>  <Molecular Formula>
C9H6O4Cl6S

>  <Monoisotopic Mass>
419.811792

>  <SMILES>
ClC1=C(Cl)C2(Cl)C3COS(=O)(=O)OCC3C1(Cl)C2(Cl)Cl

>  <InChI>
InChI=1S/C9H6Cl6O4S/c10-5-6(11)8(13)4-2-19-20(16,17)18-1-3(4)7(5,12)9(8,14)15/h3-4H,1-2H2

>  <InChIKey>
AAPVQEMYVNZIOO-UHFFFAOYSA-N

>  <Kingdom>
Organic compounds

>  <Superclass>
Organic acids and derivatives

>  <Class>
Organic sulfuric acids and derivatives

>  <Subclass>
Sulfuric acid esters

>  <Parent Level 1>
Sulfuric acid diesters

>  <Parent Level 2>


>  <Parent Level 3>


>  <cLogP>
3.2513

>  <cLogS>
-4.086

>  <Druglikeness>
-3.2722

>  <NP-class probability>
0.41

>  <SmilesFragFp 3>


>  <MS_READY_SMILES>
ClC1=C(Cl)C2(Cl)C3COS(=O)(=O)OCC3C1(Cl)C2(Cl)Cl

>  <MS_READY_InChI>
InChI=1S/C9H6Cl6O4S/c10-5-6(11)8(13)4-2-19-20(16,17)18-1-3(4)7(5,12)9(8,14)15/h3-4H,1-2H2

>  <QSAR_READY_SMILES>
ClC1=C(Cl)C2(Cl)C3COS(=O)(=O)OCC3C1(Cl)C2(Cl)Cl

>  <QSAR_READY_InChI>
InChI=1S/C9H6Cl6O4S/c10-5-6(11)8(13)4-2-19-20(16,17)18-1-3(4)7(5,12)9(8,14)15/h3-4H,1-2H2

>  <DTXSID>
DTXSID3037541

>  <DTXCID>
DTXCID1017541

>  <CASRN>
1031-07-8

>  <EXPOCAST_MEDIAN_EXPOSURE_PREDICTION_MG/KG-BW/DAY>
2.58E-06

>  <BIOCONCENTRATION_FACTOR_TEST_PRED>
-

>  <BOILING_POINT_DEGC_TEST_PRED>
377.806

>  <48HR_DAPHNIA_LC50_MOL/L_TEST_PRED>
7.73E-06

>  <DENSITY_G/CM^3_TEST_PRED>
1.974

>  <DEVTOX_TEST_PRED>
0.974

>  <96HR_FATHEAD_MINNOW_MOL/L_TEST_PRED>
3.17E-06

>  <FLASH_POINT_DEGC_TEST_PRED>
215.837

>  <MELTING_POINT_DEGC_TEST_PRED>
120.615

>  <AMES_MUTAGENICITY_TEST_PRED>
0.357

>  <ORAL_RAT_LD50_MOL/KG_TEST_PRED>
-

>  <SURFACE_TENSION_DYN/CM_TEST_PRED>
-

>  <THERMAL_CONDUCTIVITY_MW/(M*K)_TEST_PRED>
-

>  <TETRAHYMENA_PYRIFORMIS_IGC50_MOL/L_TEST_PRED>
-

>  <VISCOSITY_CP_CP_TEST_PRED>
-

>  <VAPOR_PRESSURE_MMHG_TEST_PRED>
8.07E-07

>  <WATER_SOLUBILITY_MOL/L_TEST_PRED>
9.93E-07

>  <ATMOSPHERIC_HYDROXYLATION_RATE_(AOH)_CM3/MOLECULE*SEC_OPERA_PRED>
1.23E-11

>  <BIOCONCENTRATION_FACTOR_OPERA_PRED>
3.21314

>  <BIODEGRADATION_HALF_LIFE_DAYS_DAYS_OPERA_PRED>
15.6067

>  <BOILING_POINT_DEGC_OPERA_PRED>
367.709

>  <HENRYS_LAW_ATM-M3/MOLE_OPERA_PRED>
1.79E-06

>  <OPERA_KM_DAYS_OPERA_PRED>
6.6025

>  <OCTANOL_AIR_PARTITION_COEFF_LOGKOA_OPERA_PRED>
9.748

>  <SOIL_ADSORPTION_COEFFICIENT_KOC_L/KG_OPERA_PRED>
9506.22

>  <OCTANOL_WATER_PARTITION_LOGP_OPERA_PRED>
3.65899

>  <MELTING_POINT_DEGC_OPERA_PRED>
181.274

>  <VAPOR_PRESSURE_MMHG_OPERA_PRED>
2.80E-07

>  <WATER_SOLUBILITY_MOL/L_OPERA_PRED>
1.14E-06

>  <Shape Index>
0.4

>  <Molecular Flexibility>
0.19973

>  <Molecular Complexity>
0.99174

>  <Electronegative Atoms>
11

>  <Stereo Centers>
4

>  <Rotatable Bonds>
0

>  <Rings Closures>
3

>  <Aromatic Rings>
0

>  <Aromatic Atoms>
0

>  <Amides>
0

>  <Amines>
0

>  <Aromatic Nitrogens>
0

>  <Shape Index 2>
0.4

>  <Molecular Flexibility 2>
0.19973

>  <Molecular Complexity 2>
0.99174

>  <Non-C/H Atoms>
11

>  <Electronegative Atoms 2>
11

>  <Stereo Centers 2>
4

>  <Rotatable Bonds 2>
0

>  <Rings Closures 2>
3

>  <Aromatic Rings 2>
0

>  <Aromatic Atoms 2>
0

>  <sp3-Atoms>
10

>  <Amides 2>
0

>  <Amines 2>
0

>  <Aromatic Nitrogens 2>
0

>  <Basic Nitrogens>
0

$$$$
Diazinone
Actelion Java MolfileCreator 2.0

  0  0  0  0  0  0              0 V3000
M  V30 BEGIN CTAB
M  V30 COUNTS 19 19 0 0 0
M  V30 BEGIN ATOM
M  V30 1 S 0.0 0.0 0.0 0
M  V30 2 P -0.0118 1.5131 0.0 0
M  V30 3 O -0.0236 3.0262 0.0 0
M  V30 4 O 1.2767 0.7683 0.0 0
M  V30 5 O -1.3239 0.7683 0.0 0
M  V30 6 C 1.2648 3.7828 0.0 0
M  V30 7 C 2.5652 1.5249 0.0 0
M  V30 8 C -2.6361 1.5249 0.0 0
M  V30 9 N 2.5534 3.038 0.0 0
M  V30 10 C 1.253 5.2959 0.0 0
M  V30 11 C 3.8537 0.7802 0.0 0
M  V30 12 C -3.9483 0.7802 0.0 0
M  V30 13 C 3.8419 3.7946 0.0 0
M  V30 14 C 2.5415 6.0525 0.0 0
M  V30 15 N 3.8301 5.3077 0.0 0
M  V30 16 C 5.1304 3.0498 0.0 0
M  V30 17 C 2.5297 7.5656 0.0 0
M  V30 18 C 5.1186 1.5604 0.0 0
M  V30 19 C 6.4189 3.8064 0.0 0
M  V30 END ATOM
M  V30 BEGIN BOND
M  V30 1 2 1 2
M  V30 2 1 2 3
M  V30 3 1 2 4
M  V30 4 1 2 5
M  V30 5 1 3 6
M  V30 6 1 4 7
M  V30 7 1 5 8
M  V30 8 2 6 9
M  V30 9 1 6 10
M  V30 10 1 7 11
M  V30 11 1 8 12
M  V30 12 1 9 13
M  V30 13 2 10 14
M  V30 14 2 13 15
M  V30 15 1 13 16
M  V30 16 1 14 17
M  V30 17 1 16 18
M  V30 18 1 16 19
M  V30 19 1 14 15
M  V30 END BOND
M  V30 END CTAB
M  END
>  <Molecule Name>
Diazinone

>  <Order (spectra)>
202

>  <NAME>
Diazinone

>  <Molecular Formula>
C12H21N2O3PS

>  <Monoisotopic Mass>
304.10105

>  <SMILES>
CCOP(=S)(OCC)OC1=NC(=NC(C)=C1)C(C)C

>  <InChI>
InChI=1S/C12H21N2O3PS/c1-6-15-18(19,16-7-2)17-11-8-10(5)13-12(14-11)9(3)4/h8-9H,6-7H2,1-5H3

>  <InChIKey>
FHIVAFMUCKRCQO-UHFFFAOYSA-N

>  <Kingdom>
Organic compounds

>  <Superclass>
Organic acids and derivatives

>  <Class>
Organic thiophosphoric acids and derivatives

>  <Subclass>
Thiophosphoric acid esters

>  <Parent Level 1>
Aryl thiophosphates

>  <Parent Level 2>
Pyrimidinyl phosphorothioates

>  <Parent Level 3>


>  <cLogP>
3.8032

>  <cLogS>
-3.802

>  <Druglikeness>
-9.7111

>  <NP-class probability>
0.68

>  <SmilesFragFp 3>


>  <MS_READY_SMILES>
CCOP(=S)(OCC)OC1=NC(=NC(C)=C1)C(C)C

>  <MS_READY_InChI>
InChI=1S/C12H21N2O3PS/c1-6-15-18(19,16-7-2)17-11-8-10(5)13-12(14-11)9(3)4/h8-9H,6-7H2,1-5H3

>  <QSAR_READY_SMILES>
CCOP(=S)(OCC)OC1=NC(=NC(C)=C1)C(C)C

>  <QSAR_READY_InChI>
InChI=1S/C12H21N2O3PS/c1-6-15-18(19,16-7-2)17-11-8-10(5)13-12(14-11)9(3)4/h8-9H,6-7H2,1-5H3

>  <DTXSID>
DTXSID9020407

>  <DTXCID>
DTXCID50407

>  <CASRN>
333-41-5

>  <EXPOCAST_MEDIAN_EXPOSURE_PREDICTION_MG/KG-BW/DAY>
3.32E-07

>  <BIOCONCENTRATION_FACTOR_TEST_PRED>
94.189

>  <BOILING_POINT_DEGC_TEST_PRED>
-

>  <48HR_DAPHNIA_LC50_MOL/L_TEST_PRED>
6.11E-09

>  <DENSITY_G/CM^3_TEST_PRED>
1.17

>  <DEVTOX_TEST_PRED>
0.609

>  <96HR_FATHEAD_MINNOW_MOL/L_TEST_PRED>
9.75E-06

>  <FLASH_POINT_DEGC_TEST_PRED>
172.928

>  <MELTING_POINT_DEGC_TEST_PRED>
2.942

>  <AMES_MUTAGENICITY_TEST_PRED>
0.26

>  <ORAL_RAT_LD50_MOL/KG_TEST_PRED>
0.000586138

>  <SURFACE_TENSION_DYN/CM_TEST_PRED>
-

>  <THERMAL_CONDUCTIVITY_MW/(M*K)_TEST_PRED>
-

>  <TETRAHYMENA_PYRIFORMIS_IGC50_MOL/L_TEST_PRED>
-

>  <VISCOSITY_CP_CP_TEST_PRED>
-

>  <VAPOR_PRESSURE_MMHG_TEST_PRED>
0.000076913

>  <WATER_SOLUBILITY_MOL/L_TEST_PRED>
7.40E-05

>  <ATMOSPHERIC_HYDROXYLATION_RATE_(AOH)_CM3/MOLECULE*SEC_OPERA_PRED>
1.76E-11

>  <BIOCONCENTRATION_FACTOR_OPERA_PRED>
70.7854

>  <BIODEGRADATION_HALF_LIFE_DAYS_DAYS_OPERA_PRED>
4.75886

>  <BOILING_POINT_DEGC_OPERA_PRED>
343.403

>  <HENRYS_LAW_ATM-M3/MOLE_OPERA_PRED>
1.13E-07

>  <OPERA_KM_DAYS_OPERA_PRED>
1.17708

>  <OCTANOL_AIR_PARTITION_COEFF_LOGKOA_OPERA_PRED>
9.83215

>  <SOIL_ADSORPTION_COEFFICIENT_KOC_L/KG_OPERA_PRED>
561.251

>  <OCTANOL_WATER_PARTITION_LOGP_OPERA_PRED>
3.80885

>  <MELTING_POINT_DEGC_OPERA_PRED>
19.9722

>  <VAPOR_PRESSURE_MMHG_OPERA_PRED>
8.99E-05

>  <WATER_SOLUBILITY_MOL/L_OPERA_PRED>
0.00015535

>  <Shape Index>
0.52632

>  <Molecular Flexibility>
0.59744

>  <Molecular Complexity>
0.69203

>  <Electronegative Atoms>
7

>  <Stereo Centers>
0

>  <Rotatable Bonds>
7

>  <Rings Closures>
1

>  <Aromatic Rings>
1

>  <Aromatic Atoms>
6

>  <Amides>
0

>  <Amines>
0

>  <Aromatic Nitrogens>
2

>  <Shape Index 2>
0.52632

>  <Molecular Flexibility 2>
0.59744

>  <Molecular Complexity 2>
0.69203

>  <Non-C/H Atoms>
7

>  <Electronegative Atoms 2>
7

>  <Stereo Centers 2>
0

>  <Rotatable Bonds 2>
7

>  <Rings Closures 2>
1

>  <Aromatic Rings 2>
1

>  <Aromatic Atoms 2>
6

>  <sp3-Atoms>
13

>  <Amides 2>
0

>  <Amines 2>
0

>  <Aromatic Nitrogens 2>
2

>  <Basic Nitrogens>
0

$$$$
Chlorpyrifos
Actelion Java MolfileCreator 2.0

  0  0  0  0  0  0              0 V3000
M  V30 BEGIN CTAB
M  V30 COUNTS 18 18 0 0 0
M  V30 BEGIN ATOM
M  V30 1 Cl 0.0 0.0 0.0 0
M  V30 2 C -1.3079 0.7541 0.0 0
M  V30 3 N -2.6158 0.0117 0.0 0
M  V30 4 C -1.3197 2.2623 0.0 0
M  V30 5 C -3.9237 0.7659 0.0 0
M  V30 6 Cl -0.0353 3.0164 0.0 0
M  V30 7 C -2.6276 3.0164 0.0 0
M  V30 8 O -5.2317 0.0235 0.0 0
M  V30 9 C -3.9355 2.2741 0.0 0
M  V30 10 P -5.2434 -1.4611 0.0 0
M  V30 11 Cl -5.2434 3.0282 0.0 0
M  V30 12 S -5.2552 -2.9457 0.0 0
M  V30 13 O -3.9591 -2.2034 0.0 0
M  V30 14 O -6.5514 -2.2034 0.0 0
M  V30 15 C -2.6747 -1.4493 0.0 0
M  V30 16 C -7.8593 -1.4493 0.0 0
M  V30 17 C -1.3904 -2.1916 0.0 0
M  V30 18 C -9.1672 -2.1916 0.0 0
M  V30 END ATOM
M  V30 BEGIN BOND
M  V30 1 1 1 2
M  V30 2 2 2 3
M  V30 3 1 2 4
M  V30 4 1 3 5
M  V30 5 1 4 6
M  V30 6 2 4 7
M  V30 7 1 5 8
M  V30 8 2 5 9
M  V30 9 1 8 10
M  V30 10 1 9 11
M  V30 11 2 10 12
M  V30 12 1 10 13
M  V30 13 1 10 14
M  V30 14 1 13 15
M  V30 15 1 14 16
M  V30 16 1 15 17
M  V30 17 1 16 18
M  V30 18 1 7 9
M  V30 END BOND
M  V30 END CTAB
M  END
>  <Molecule Name>
Chlorpyrifos

>  <Order (spectra)>
205

>  <NAME>
Chlorpyrifos

>  <Molecular Formula>
C9H11NO3Cl3PS

>  <Monoisotopic Mass>
348.926282

>  <SMILES>
CCOP(=S)(OCC)OC1=NC(Cl)=C(Cl)C=C1Cl

>  <InChI>
InChI=1S/C9H11Cl3NO3PS/c1-3-14-17(18,15-4-2)16-9-7(11)5-6(10)8(12)13-9/h5H,3-4H2,1-2H3

>  <InChIKey>
SBPBAQFWLVIOKP-UHFFFAOYSA-N

>  <Kingdom>
Organic compounds

>  <Superclass>
Organic acids and derivatives

>  <Class>
Organic thiophosphoric acids and derivatives

>  <Subclass>
Thiophosphoric acid esters

>  <Parent Level 1>
Aryl thiophosphates

>  <Parent Level 2>


>  <Parent Level 3>


>  <cLogP>
4.8065

>  <cLogS>
-5.459

>  <Druglikeness>
-9.3724

>  <NP-class probability>
0.21

>  <SmilesFragFp 3>


>  <MS_READY_SMILES>
CCOP(=S)(OCC)OC1=NC(Cl)=C(Cl)C=C1Cl

>  <MS_READY_InChI>
InChI=1S/C9H11Cl3NO3PS/c1-3-14-17(18,15-4-2)16-9-7(11)5-6(10)8(12)13-9/h5H,3-4H2,1-2H3

>  <QSAR_READY_SMILES>
CCOP(=S)(OCC)OC1=NC(Cl)=C(Cl)C=C1Cl

>  <QSAR_READY_InChI>
InChI=1S/C9H11Cl3NO3PS/c1-3-14-17(18,15-4-2)16-9-7(11)5-6(10)8(12)13-9/h5H,3-4H2,1-2H3

>  <DTXSID>
DTXSID4020458

>  <DTXCID>
DTXCID80458

>  <CASRN>
2921-88-2

>  <EXPOCAST_MEDIAN_EXPOSURE_PREDICTION_MG/KG-BW/DAY>
4.36E-07

>  <BIOCONCENTRATION_FACTOR_TEST_PRED>
380.189

>  <BOILING_POINT_DEGC_TEST_PRED>
-

>  <48HR_DAPHNIA_LC50_MOL/L_TEST_PRED>
8.30E-09

>  <DENSITY_G/CM^3_TEST_PRED>
1.486

>  <DEVTOX_TEST_PRED>
0.595

>  <96HR_FATHEAD_MINNOW_MOL/L_TEST_PRED>
8.09E-07

>  <FLASH_POINT_DEGC_TEST_PRED>
179.494

>  <MELTING_POINT_DEGC_TEST_PRED>
44.557

>  <AMES_MUTAGENICITY_TEST_PRED>
-0.097

>  <ORAL_RAT_LD50_MOL/KG_TEST_PRED>
0.000304789

>  <SURFACE_TENSION_DYN/CM_TEST_PRED>
-

>  <THERMAL_CONDUCTIVITY_MW/(M*K)_TEST_PRED>
-

>  <TETRAHYMENA_PYRIFORMIS_IGC50_MOL/L_TEST_PRED>
-

>  <VISCOSITY_CP_CP_TEST_PRED>
-

>  <VAPOR_PRESSURE_MMHG_TEST_PRED>
3.08E-05

>  <WATER_SOLUBILITY_MOL/L_TEST_PRED>
2.36E-06

>  <ATMOSPHERIC_HYDROXYLATION_RATE_(AOH)_CM3/MOLECULE*SEC_OPERA_PRED>
1.48E-11

>  <BIOCONCENTRATION_FACTOR_OPERA_PRED>
1515.77

>  <BIODEGRADATION_HALF_LIFE_DAYS_DAYS_OPERA_PRED>
4.74463

>  <BOILING_POINT_DEGC_OPERA_PRED>
364.076

>  <HENRYS_LAW_ATM-M3/MOLE_OPERA_PRED>
2.92E-06

>  <OPERA_KM_DAYS_OPERA_PRED>
5.88563

>  <OCTANOL_AIR_PARTITION_COEFF_LOGKOA_OPERA_PRED>
10.5681

>  <SOIL_ADSORPTION_COEFFICIENT_KOC_L/KG_OPERA_PRED>
5000.97

>  <OCTANOL_WATER_PARTITION_LOGP_OPERA_PRED>
4.95863

>  <MELTING_POINT_DEGC_OPERA_PRED>
41.9988

>  <VAPOR_PRESSURE_MMHG_OPERA_PRED>
2.03E-05

>  <WATER_SOLUBILITY_MOL/L_OPERA_PRED>
3.29E-06

>  <Shape Index>
0.55556

>  <Molecular Flexibility>
0.58576

>  <Molecular Complexity>
0.71389

>  <Electronegative Atoms>
9

>  <Stereo Centers>
0

>  <Rotatable Bonds>
6

>  <Rings Closures>
1

>  <Aromatic Rings>
1

>  <Aromatic Atoms>
6

>  <Amides>
0

>  <Amines>
0

>  <Aromatic Nitrogens>
1

>  <Shape Index 2>
0.55556

>  <Molecular Flexibility 2>
0.58576

>  <Molecular Complexity 2>
0.71389

>  <Non-C/H Atoms>
9

>  <Electronegative Atoms 2>
9

>  <Stereo Centers 2>
0

>  <Rotatable Bonds 2>
6

>  <Rings Closures 2>
1

>  <Aromatic Rings 2>
1

>  <Aromatic Atoms 2>
6

>  <sp3-Atoms>
9

>  <Amides 2>
0

>  <Amines 2>
0

>  <Aromatic Nitrogens 2>
1

>  <Basic Nitrogens>
0

$$$$
Methyl parathion
Actelion Java MolfileCreator 2.0

  0  0  0  0  0  0              0 V3000
M  V30 BEGIN CTAB
M  V30 COUNTS 16 16 0 0 0
M  V30 BEGIN ATOM
M  V30 1 S 0.0 0.0 0.0 0
M  V30 2 P -1.316 0.7588 0.0 0
M  V30 3 O -0.0237 1.5176 0.0 0
M  V30 4 O -1.3279 -0.735 0.0 0
M  V30 5 O -2.6321 1.5176 0.0 0
M  V30 6 C 1.2686 0.7706 0.0 0
M  V30 7 C -2.6439 -1.4701 0.0 0
M  V30 8 C -3.9481 0.7706 0.0 0
M  V30 9 C 1.2567 -0.7232 0.0 0
M  V30 10 C 2.5609 1.5294 0.0 0
M  V30 11 C 2.5491 -1.4701 0.0 0
M  V30 12 C 3.8533 0.7825 0.0 0
M  V30 13 C 3.8414 -0.7113 0.0 0
M  V30 14 N 5.1337 -1.4583 0.0 0 CHG=1
M  V30 15 O 5.1219 -2.9522 0.0 0
M  V30 16 O 6.4261 -0.6995 0.0 0 CHG=-1
M  V30 END ATOM
M  V30 BEGIN BOND
M  V30 1 2 1 2
M  V30 2 1 2 3
M  V30 3 1 2 4
M  V30 4 1 2 5
M  V30 5 1 3 6
M  V30 6 1 4 7
M  V30 7 1 5 8
M  V30 8 2 6 9
M  V30 9 1 6 10
M  V30 10 1 9 11
M  V30 11 2 10 12
M  V30 12 2 11 13
M  V30 13 1 13 14
M  V30 14 2 14 15
M  V30 15 1 14 16
M  V30 16 1 12 13
M  V30 END BOND
M  V30 END CTAB
M  END
>  <Molecule Name>
Methyl parathion

>  <Order (spectra)>
211

>  <NAME>
Methyl parathion

>  <Molecular Formula>
C8H10NO5PS

>  <Monoisotopic Mass>
263.001731

>  <SMILES>
COP(=S)(OC)OC1=CC=C(C=C1)[N+]([O-])=O

>  <InChI>
InChI=1S/C8H10NO5PS/c1-12-15(16,13-2)14-8-5-3-7(4-6-8)9(10)11/h3-6H,1-2H3

>  <InChIKey>
RLBIQVVOMOPOHC-UHFFFAOYSA-N

>  <Kingdom>
Organic compounds

>  <Superclass>
Organic acids and derivatives

>  <Class>
Organic thiophosphoric acids and derivatives

>  <Subclass>
Thiophosphoric acid esters

>  <Parent Level 1>
Aryl thiophosphates

>  <Parent Level 2>
Phenyl thiophosphates

>  <Parent Level 3>


>  <cLogP>
1.8064

>  <cLogS>
-3.618

>  <Druglikeness>
-9.563

>  <NP-class probability>
0.21

>  <SmilesFragFp 3>


>  <MS_READY_SMILES>
COP(=S)(OC)OC1=CC=C(C=C1)[N+]([O-])=O

>  <MS_READY_InChI>
InChI=1S/C8H10NO5PS/c1-12-15(16,13-2)14-8-5-3-7(4-6-8)9(10)11/h3-6H,1-2H3

>  <QSAR_READY_SMILES>
COP(=S)(OC)OC1=CC=C(C=C1)[N+]([O-])=O

>  <QSAR_READY_InChI>
InChI=1S/C8H10NO5PS/c1-12-15(16,13-2)14-8-5-3-7(4-6-8)9(10)11/h3-6H,1-2H3

>  <DTXSID>
DTXSID1020855

>  <DTXCID>
DTXCID30855

>  <CASRN>
298-00-0

>  <EXPOCAST_MEDIAN_EXPOSURE_PREDICTION_MG/KG-BW/DAY>
1.18E-07

>  <BIOCONCENTRATION_FACTOR_TEST_PRED>
50.3501

>  <BOILING_POINT_DEGC_TEST_PRED>
-

>  <48HR_DAPHNIA_LC50_MOL/L_TEST_PRED>
2.21E-08

>  <DENSITY_G/CM^3_TEST_PRED>
1.403

>  <DEVTOX_TEST_PRED>
0.679

>  <96HR_FATHEAD_MINNOW_MOL/L_TEST_PRED>
9.68E-06

>  <FLASH_POINT_DEGC_TEST_PRED>
159.88

>  <MELTING_POINT_DEGC_TEST_PRED>
18.96

>  <AMES_MUTAGENICITY_TEST_PRED>
0.789

>  <ORAL_RAT_LD50_MOL/KG_TEST_PRED>
0.00011885

>  <SURFACE_TENSION_DYN/CM_TEST_PRED>
-

>  <THERMAL_CONDUCTIVITY_MW/(M*K)_TEST_PRED>
-

>  <TETRAHYMENA_PYRIFORMIS_IGC50_MOL/L_TEST_PRED>
-

>  <VISCOSITY_CP_CP_TEST_PRED>
-

>  <VAPOR_PRESSURE_MMHG_TEST_PRED>
4.72E-05

>  <WATER_SOLUBILITY_MOL/L_TEST_PRED>
0.000206063

>  <ATMOSPHERIC_HYDROXYLATION_RATE_(AOH)_CM3/MOLECULE*SEC_OPERA_PRED>
1.25E-11

>  <BIOCONCENTRATION_FACTOR_OPERA_PRED>
84.94

>  <BIODEGRADATION_HALF_LIFE_DAYS_DAYS_OPERA_PRED>
4.99917

>  <BOILING_POINT_DEGC_OPERA_PRED>
345.879

>  <HENRYS_LAW_ATM-M3/MOLE_OPERA_PRED>
1.01E-07

>  <OPERA_KM_DAYS_OPERA_PRED>
3.53404

>  <OCTANOL_AIR_PARTITION_COEFF_LOGKOA_OPERA_PRED>
8.20928

>  <SOIL_ADSORPTION_COEFFICIENT_KOC_L/KG_OPERA_PRED>
998.772

>  <OCTANOL_WATER_PARTITION_LOGP_OPERA_PRED>
2.86214

>  <MELTING_POINT_DEGC_OPERA_PRED>
35.3983

>  <VAPOR_PRESSURE_MMHG_OPERA_PRED>
3.53E-06

>  <WATER_SOLUBILITY_MOL/L_OPERA_PRED>
0.000173298

>  <Shape Index>
0.625

>  <Molecular Flexibility>
0.64127

>  <Molecular Complexity>
0.56446

>  <Electronegative Atoms>
8

>  <Stereo Centers>
0

>  <Rotatable Bonds>
5

>  <Rings Closures>
1

>  <Aromatic Rings>
1

>  <Aromatic Atoms>
6

>  <Amides>
0

>  <Amines>
0

>  <Aromatic Nitrogens>
0

>  <Shape Index 2>
0.625

>  <Molecular Flexibility 2>
0.64127

>  <Molecular Complexity 2>
0.56446

>  <Non-C/H Atoms>
8

>  <Electronegative Atoms 2>
8

>  <Stereo Centers 2>
0

>  <Rotatable Bonds 2>
5

>  <Rings Closures 2>
1

>  <Aromatic Rings 2>
1

>  <Aromatic Atoms 2>
6

>  <sp3-Atoms>
8

>  <Amides 2>
0

>  <Amines 2>
0

>  <Aromatic Nitrogens 2>
0

>  <Basic Nitrogens>
0

$$$$
Temephos
Actelion Java MolfileCreator 2.0

  0  0  0  0  0  0              0 V3000
M  V30 BEGIN CTAB
M  V30 COUNTS 27 28 0 0 0
M  V30 BEGIN ATOM
M  V30 1 S 0.0 0.0 0.0 0
M  V30 2 P -1.3141 0.7577 0.0 0
M  V30 3 O -0.0236 1.5154 0.0 0
M  V30 4 O -1.326 -0.734 0.0 0
M  V30 5 O -2.6283 1.5154 0.0 0
M  V30 6 C 1.2668 0.7814 0.0 0
M  V30 7 C -2.6402 -1.4681 0.0 0
M  V30 8 C -3.9425 0.7814 0.0 0
M  V30 9 C 1.2549 -0.7103 0.0 0
M  V30 10 C 2.5573 1.5391 0.0 0
M  V30 11 C 2.5454 -1.4444 0.0 0
M  V30 12 C 3.8478 0.805 0.0 0
M  V30 13 C 3.836 -0.6866 0.0 0
M  V30 14 S 5.1265 -1.4207 0.0 0
M  V30 15 C 6.417 -0.663 0.0 0
M  V30 16 C 7.7075 -1.397 0.0 0
M  V30 17 C 6.4051 0.8524 0.0 0
M  V30 18 C 8.998 -0.6393 0.0 0
M  V30 19 C 7.6956 1.6101 0.0 0
M  V30 20 C 8.9861 0.8761 0.0 0
M  V30 21 O 10.2767 1.6338 0.0 0
M  V30 22 P 10.2648 3.1493 0.0 0
M  V30 23 S 8.9506 2.4152 0.0 0
M  V30 24 O 8.9506 3.907 0.0 0
M  V30 25 O 11.5553 3.907 0.0 0
M  V30 26 C 8.9388 5.4225 0.0 0
M  V30 27 C 11.5435 5.4225 0.0 0
M  V30 END ATOM
M  V30 BEGIN BOND
M  V30 1 2 1 2
M  V30 2 1 2 3
M  V30 3 1 2 4
M  V30 4 1 2 5
M  V30 5 1 3 6
M  V30 6 1 4 7
M  V30 7 1 5 8
M  V30 8 2 6 9
M  V30 9 1 6 10
M  V30 10 1 9 11
M  V30 11 2 10 12
M  V30 12 2 11 13
M  V30 13 1 13 14
M  V30 14 1 14 15
M  V30 15 2 15 16
M  V30 16 1 15 17
M  V30 17 1 16 18
M  V30 18 2 17 19
M  V30 19 2 18 20
M  V30 20 1 20 21
M  V30 21 1 21 22
M  V30 22 2 22 23
M  V30 23 1 22 24
M  V30 24 1 22 25
M  V30 25 1 24 26
M  V30 26 1 25 27
M  V30 27 1 12 13
M  V30 28 1 19 20
M  V30 END BOND
M  V30 END CTAB
M  END
>  <Molecule Name>
Temephos

>  <Order (spectra)>
247

>  <NAME>
Temephos

>  <Molecular Formula>
C16H20O6P2S3

>  <Monoisotopic Mass>
465.989724

>  <SMILES>
COP(=S)(OC)OC1=CC=C(SC2=CC=C(OP(=S)(OC)OC)C=C2)C=C1

>  <InChI>
InChI=1S/C16H20O6P2S3/c1-17-23(25,18-2)21-13-5-9-15(10-6-13)27-16-11-7-14(8-12-16)22-24(26,19-3)20-4/h5-12H,1-4H3

>  <InChIKey>
WWJZWCUNLNYYAU-UHFFFAOYSA-N

>  <Kingdom>
Organic compounds

>  <Superclass>
Organic acids and derivatives

>  <Class>
Organic thiophosphoric acids and derivatives

>  <Subclass>
Thiophosphoric acid esters

>  <Parent Level 1>
Aryl thiophosphates

>  <Parent Level 2>
Phenyl thiophosphates

>  <Parent Level 3>


>  <cLogP>
5.6175

>  <cLogS>
-6.486

>  <Druglikeness>
-3.9426

>  <NP-class probability>
0.19

>  <SmilesFragFp 3>


>  <MS_READY_SMILES>
COP(=S)(OC)OC1=CC=C(SC2=CC=C(OP(=S)(OC)OC)C=C2)C=C1

>  <MS_READY_InChI>
InChI=1S/C16H20O6P2S3/c1-17-23(25,18-2)21-13-5-9-15(10-6-13)27-16-11-7-14(8-12-16)22-24(26,19-3)20-4/h5-12H,1-4H3

>  <QSAR_READY_SMILES>
COP(=S)(OC)OC1=CC=C(SC2=CC=C(OP(=S)(OC)OC)C=C2)C=C1

>  <QSAR_READY_InChI>
InChI=1S/C16H20O6P2S3/c1-17-23(25,18-2)21-13-5-9-15(10-6-13)27-16-11-7-14(8-12-16)22-24(26,19-3)20-4/h5-12H,1-4H3

>  <DTXSID>
DTXSID1032484

>  <DTXCID>
DTXCID9012484

>  <CASRN>
3383-96-8

>  <EXPOCAST_MEDIAN_EXPOSURE_PREDICTION_MG/KG-BW/DAY>
1.22E-07

>  <BIOCONCENTRATION_FACTOR_TEST_PRED>
-

>  <BOILING_POINT_DEGC_TEST_PRED>
-

>  <48HR_DAPHNIA_LC50_MOL/L_TEST_PRED>
-

>  <DENSITY_G/CM^3_TEST_PRED>
1.387

>  <DEVTOX_TEST_PRED>
-

>  <96HR_FATHEAD_MINNOW_MOL/L_TEST_PRED>
2.53E-06

>  <FLASH_POINT_DEGC_TEST_PRED>
236.421

>  <MELTING_POINT_DEGC_TEST_PRED>
13.32

>  <AMES_MUTAGENICITY_TEST_PRED>
0.485

>  <ORAL_RAT_LD50_MOL/KG_TEST_PRED>
0.000635331

>  <SURFACE_TENSION_DYN/CM_TEST_PRED>
-

>  <THERMAL_CONDUCTIVITY_MW/(M*K)_TEST_PRED>
-

>  <TETRAHYMENA_PYRIFORMIS_IGC50_MOL/L_TEST_PRED>
-

>  <VISCOSITY_CP_CP_TEST_PRED>
-

>  <VAPOR_PRESSURE_MMHG_TEST_PRED>
-

>  <WATER_SOLUBILITY_MOL/L_TEST_PRED>
8.30E-07

>  <ATMOSPHERIC_HYDROXYLATION_RATE_(AOH)_CM3/MOLECULE*SEC_OPERA_PRED>
2.34E-11

>  <BIOCONCENTRATION_FACTOR_OPERA_PRED>
64.7444

>  <BIODEGRADATION_HALF_LIFE_DAYS_DAYS_OPERA_PRED>
12.9114

>  <BOILING_POINT_DEGC_OPERA_PRED>
457.31

>  <HENRYS_LAW_ATM-M3/MOLE_OPERA_PRED>
3.64E-06

>  <OPERA_KM_DAYS_OPERA_PRED>
0.914422

>  <OCTANOL_AIR_PARTITION_COEFF_LOGKOA_OPERA_PRED>
11.6779

>  <SOIL_ADSORPTION_COEFFICIENT_KOC_L/KG_OPERA_PRED>
99859

>  <OCTANOL_WATER_PARTITION_LOGP_OPERA_PRED>
5.95756

>  <MELTING_POINT_DEGC_OPERA_PRED>
30.0044

>  <VAPOR_PRESSURE_MMHG_OPERA_PRED>
1.65E-08

>  <WATER_SOLUBILITY_MOL/L_OPERA_PRED>
8.98E-08

>  <Shape Index>
0.62963

>  <Molecular Flexibility>
0.69505

>  <Molecular Complexity>
0.68393

>  <Electronegative Atoms>
11

>  <Stereo Centers>
0

>  <Rotatable Bonds>
10

>  <Rings Closures>
2

>  <Aromatic Rings>
2

>  <Aromatic Atoms>
12

>  <Amides>
0

>  <Amines>
0

>  <Aromatic Nitrogens>
0

>  <Shape Index 2>
0.62963

>  <Molecular Flexibility 2>
0.69505

>  <Molecular Complexity 2>
0.68393

>  <Non-C/H Atoms>
11

>  <Electronegative Atoms 2>
11

>  <Stereo Centers 2>
0

>  <Rotatable Bonds 2>
10

>  <Rings Closures 2>
2

>  <Aromatic Rings 2>
2

>  <Aromatic Atoms 2>
12

>  <sp3-Atoms>
15

>  <Amides 2>
0

>  <Amines 2>
0

>  <Aromatic Nitrogens 2>
0

>  <Basic Nitrogens>
0

$$$$
1,2,5,6-Tetrabromocyclooctane
Actelion Java MolfileCreator 2.0

  0  0  0  0  0  0              0 V3000
M  V30 BEGIN CTAB
M  V30 COUNTS 12 12 0 0 0
M  V30 BEGIN ATOM
M  V30 1 Br 0.0 0.0 0.0 0
M  V30 2 C -1.3076 -0.7355 0.0 0
M  V30 3 C -1.1208 -2.2066 0.0 0
M  V30 4 C -2.5101 0.1868 0.0 0
M  V30 5 Br 0.3152 -2.5802 0.0 0
M  V30 6 C -2.0431 -3.3858 0.0 0
M  V30 7 C -4.0046 0.0 0.0 0
M  V30 8 C -3.5375 -3.5726 0.0 0
M  V30 9 C -4.9269 -1.1791 0.0 0
M  V30 10 C -4.7401 -2.6502 0.0 0
M  V30 11 Br -6.3863 -0.7822 0.0 0
M  V30 12 Br -6.0477 -3.3858 0.0 0
M  V30 END ATOM
M  V30 BEGIN BOND
M  V30 1 1 1 2
M  V30 2 1 2 3
M  V30 3 1 2 4
M  V30 4 1 3 5
M  V30 5 1 3 6
M  V30 6 1 4 7
M  V30 7 1 6 8
M  V30 8 1 7 9
M  V30 9 1 8 10
M  V30 10 1 9 11
M  V30 11 1 10 12
M  V30 12 1 9 10
M  V30 END BOND
M  V30 END CTAB
M  END
>  <Molecule Name>
1,2,5,6-Tetrabromocyclooctane

>  <Order (spectra)>
124

>  <NAME>
1,2,5,6-Tetrabromocyclooctane

>  <Molecular Formula>
C8H12Br4

>  <Monoisotopic Mass>
423.767244

>  <SMILES>
BrC1CCC(Br)C(Br)CCC1Br

>  <InChI>
InChI=1S/C8H12Br4/c9-5-1-2-6(10)8(12)4-3-7(5)11/h5-8H,1-4H2

>  <InChIKey>
RZLXIANUDLLFHN-UHFFFAOYSA-N

>  <Kingdom>
Organic compounds

>  <Superclass>
Organohalogen compounds

>  <Class>
Organobromides

>  <Subclass>


>  <Parent Level 1>
Organobromides

>  <Parent Level 2>


>  <Parent Level 3>


>  <cLogP>
4.8844

>  <cLogS>
-4.566

>  <Druglikeness>
-12.162

>  <NP-class probability>
0.55

>  <SmilesFragFp 3>


>  <MS_READY_SMILES>
BrC1CCC(Br)C(Br)CCC1Br

>  <MS_READY_InChI>
InChI=1S/C8H12Br4/c9-5-1-2-6(10)8(12)4-3-7(5)11/h5-8H,1-4H2

>  <QSAR_READY_SMILES>
BrC1CCC(Br)C(Br)CCC1Br

>  <QSAR_READY_InChI>
InChI=1S/C8H12Br4/c9-5-1-2-6(10)8(12)4-3-7(5)11/h5-8H,1-4H2

>  <DTXSID>
DTXSID0052750

>  <DTXCID>
DTXCID5031260

>  <CASRN>
3194-57-8

>  <EXPOCAST_MEDIAN_EXPOSURE_PREDICTION_MG/KG-BW/DAY>
3.50E-07

>  <BIOCONCENTRATION_FACTOR_TEST_PRED>
288.403

>  <BOILING_POINT_DEGC_TEST_PRED>
289.286

>  <48HR_DAPHNIA_LC50_MOL/L_TEST_PRED>
2.05E-07

>  <DENSITY_G/CM^3_TEST_PRED>
2.372

>  <DEVTOX_TEST_PRED>
-

>  <96HR_FATHEAD_MINNOW_MOL/L_TEST_PRED>
2.99E-07

>  <FLASH_POINT_DEGC_TEST_PRED>
170.147

>  <MELTING_POINT_DEGC_TEST_PRED>
80.443

>  <AMES_MUTAGENICITY_TEST_PRED>
0.572

>  <ORAL_RAT_LD50_MOL/KG_TEST_PRED>
0.00620869

>  <SURFACE_TENSION_DYN/CM_TEST_PRED>
49.17

>  <THERMAL_CONDUCTIVITY_MW/(M*K)_TEST_PRED>
81.858

>  <TETRAHYMENA_PYRIFORMIS_IGC50_MOL/L_TEST_PRED>
9.27E-07

>  <VISCOSITY_CP_CP_TEST_PRED>
26.7301

>  <VAPOR_PRESSURE_MMHG_TEST_PRED>
0.00398107

>  <WATER_SOLUBILITY_MOL/L_TEST_PRED>
4.10E-06

>  <ATMOSPHERIC_HYDROXYLATION_RATE_(AOH)_CM3/MOLECULE*SEC_OPERA_PRED>
4.74E-12

>  <BIOCONCENTRATION_FACTOR_OPERA_PRED>
1017.8

>  <BIODEGRADATION_HALF_LIFE_DAYS_DAYS_OPERA_PRED>
152.896

>  <BOILING_POINT_DEGC_OPERA_PRED>
309.204

>  <HENRYS_LAW_ATM-M3/MOLE_OPERA_PRED>
9.26E-06

>  <OPERA_KM_DAYS_OPERA_PRED>
3.00033

>  <OCTANOL_AIR_PARTITION_COEFF_LOGKOA_OPERA_PRED>
8.42433

>  <SOIL_ADSORPTION_COEFFICIENT_KOC_L/KG_OPERA_PRED>
2578.09

>  <OCTANOL_WATER_PARTITION_LOGP_OPERA_PRED>
5.13749

>  <MELTING_POINT_DEGC_OPERA_PRED>
72.9079

>  <VAPOR_PRESSURE_MMHG_OPERA_PRED>
0.0752377

>  <WATER_SOLUBILITY_MOL/L_OPERA_PRED>
1.64E-05

>  <Shape Index>
0.58333

>  <Molecular Flexibility>
0.38993

>  <Molecular Complexity>
0.58275

>  <Electronegative Atoms>
4

>  <Stereo Centers>
4

>  <Rotatable Bonds>
0

>  <Rings Closures>
1

>  <Aromatic Rings>
0

>  <Aromatic Atoms>
0

>  <Amides>
0

>  <Amines>
0

>  <Aromatic Nitrogens>
0

>  <Shape Index 2>
0.58333

>  <Molecular Flexibility 2>
0.38993

>  <Molecular Complexity 2>
0.58275

>  <Non-C/H Atoms>
4

>  <Electronegative Atoms 2>
4

>  <Stereo Centers 2>
4

>  <Rotatable Bonds 2>
0

>  <Rings Closures 2>
1

>  <Aromatic Rings 2>
0

>  <Aromatic Atoms 2>
0

>  <sp3-Atoms>
8

>  <Amides 2>
0

>  <Amines 2>
0

>  <Aromatic Nitrogens 2>
0

>  <Basic Nitrogens>
0

$$$$
1,1-Dibromo-2,3,3,4,4,5-hexachloro-2-cyclopenta-2,4-dien-1-ylcyclooctane
Actelion Java MolfileCreator 2.0

  0  0  0  0  0  0              0 V3000
M  V30 BEGIN CTAB
M  V30 COUNTS 21 22 0 0 0
M  V30 BEGIN ATOM
M  V30 1 Br 0.0 0.0 0.0 0
M  V30 2 C 1.0439 1.0676 0.0 0
M  V30 3 Br 1.4235 -0.3677 0.0 0
M  V30 4 C -0.1542 1.9929 0.0 0
M  V30 5 C 2.5149 1.2693 0.0 0
M  V30 6 Cl -1.4947 2.586 0.0 0
M  V30 7 C -0.3558 3.4876 0.0 0
M  V30 8 C -1.4591 1.2574 0.0 0
M  V30 9 C 3.4164 2.4674 0.0 0
M  V30 10 Cl -1.4235 4.5553 0.0 0
M  V30 11 Cl -1.8743 3.2029 0.0 0
M  V30 12 C 0.5456 4.6858 0.0 0
M  V30 13 C -2.8352 1.8743 0.0 0
M  V30 14 C -1.6252 -0.2135 0.0 0
M  V30 15 C 3.2148 3.9621 0.0 0
M  V30 16 Cl 0.5338 6.1923 0.0 0
M  V30 17 Cl -0.7592 5.445 0.0 0
M  V30 18 C 2.0166 4.8874 0.0 0
M  V30 19 C -3.8435 0.771 0.0 0
M  V30 20 C -3.0961 -0.5101 0.0 0
M  V30 21 Cl 2.3962 6.3466 0.0 0
M  V30 END ATOM
M  V30 BEGIN BOND
M  V30 1 1 1 2
M  V30 2 1 2 3
M  V30 3 1 2 4
M  V30 4 1 2 5
M  V30 5 1 4 6
M  V30 6 1 4 7
M  V30 7 1 4 8
M  V30 8 1 5 9
M  V30 9 1 7 10
M  V30 10 1 7 11
M  V30 11 1 7 12
M  V30 12 1 8 13
M  V30 13 1 8 14
M  V30 14 1 9 15
M  V30 15 1 12 16
M  V30 16 1 12 17
M  V30 17 1 12 18
M  V30 18 2 13 19
M  V30 19 2 14 20
M  V30 20 1 18 21
M  V30 21 1 15 18
M  V30 22 1 19 20
M  V30 END BOND
M  V30 END CTAB
M  END
>  <Molecule Name>
1,1-Dibromo-2,3,3,4,4,5-hexachloro-2-cyclopenta-2,4-dien-1-ylcyclooctane

>  <Order (spectra)>
125

>  <NAME>
1,1-Dibromo-2,3,3,4,4,5-hexachloro-2-cyclopenta-2,4-dien-1-ylcyclooctane

>  <Molecular Formula>
C13H12Br2Cl6

>  <Monoisotopic Mass>
535.743684

>  <SMILES>
C1CC(C(C(C(C(C1)(Br)Br)(C2C=CC=C2)Cl)(Cl)Cl)(Cl)Cl)Cl

>  <InChI>
InChI=1S/C13H12Br2Cl6/c14-10(15)7-3-6-9(16)12(18,19)13(20,21)11(10,17)8-4-1-2-5-8/h1-2,4-5,8-9H,3,6-7H2

>  <InChIKey>
OZQOUGTVRWVFRK-UHFFFAOYSA-N

>  <Kingdom>
Organic compounds

>  <Superclass>
Organohalogen compounds

>  <Class>
Organochlorides

>  <Subclass>


>  <Parent Level 1>
Organochlorides

>  <Parent Level 2>


>  <Parent Level 3>


>  <cLogP>
7.3486

>  <cLogS>
-7.05

>  <Druglikeness>
-11.608

>  <NP-class probability>
0.55

>  <SmilesFragFp 3>


>  <MS_READY_SMILES>
-

>  <MS_READY_InChI>


>  <QSAR_READY_SMILES>
-

>  <QSAR_READY_InChI>


>  <DTXSID>
-

>  <DTXCID>
-

>  <CASRN>
-

>  <EXPOCAST_MEDIAN_EXPOSURE_PREDICTION_MG/KG-BW/DAY>
-

>  <BIOCONCENTRATION_FACTOR_TEST_PRED>
-

>  <BOILING_POINT_DEGC_TEST_PRED>
-

>  <48HR_DAPHNIA_LC50_MOL/L_TEST_PRED>
-

>  <DENSITY_G/CM^3_TEST_PRED>
-

>  <DEVTOX_TEST_PRED>
-

>  <96HR_FATHEAD_MINNOW_MOL/L_TEST_PRED>
-

>  <FLASH_POINT_DEGC_TEST_PRED>
-

>  <MELTING_POINT_DEGC_TEST_PRED>
-

>  <AMES_MUTAGENICITY_TEST_PRED>
-

>  <ORAL_RAT_LD50_MOL/KG_TEST_PRED>
-

>  <SURFACE_TENSION_DYN/CM_TEST_PRED>
-

>  <THERMAL_CONDUCTIVITY_MW/(M*K)_TEST_PRED>
-

>  <TETRAHYMENA_PYRIFORMIS_IGC50_MOL/L_TEST_PRED>
-

>  <VISCOSITY_CP_CP_TEST_PRED>
-

>  <VAPOR_PRESSURE_MMHG_TEST_PRED>
-

>  <WATER_SOLUBILITY_MOL/L_TEST_PRED>
-

>  <ATMOSPHERIC_HYDROXYLATION_RATE_(AOH)_CM3/MOLECULE*SEC_OPERA_PRED>
-

>  <BIOCONCENTRATION_FACTOR_OPERA_PRED>
-

>  <BIODEGRADATION_HALF_LIFE_DAYS_DAYS_OPERA_PRED>
-

>  <BOILING_POINT_DEGC_OPERA_PRED>
-

>  <HENRYS_LAW_ATM-M3/MOLE_OPERA_PRED>
-

>  <OPERA_KM_DAYS_OPERA_PRED>
-

>  <OCTANOL_AIR_PARTITION_COEFF_LOGKOA_OPERA_PRED>
-

>  <SOIL_ADSORPTION_COEFFICIENT_KOC_L/KG_OPERA_PRED>
-

>  <OCTANOL_WATER_PARTITION_LOGP_OPERA_PRED>
-

>  <MELTING_POINT_DEGC_OPERA_PRED>
-

>  <VAPOR_PRESSURE_MMHG_OPERA_PRED>
-

>  <WATER_SOLUBILITY_MOL/L_OPERA_PRED>
-

>  <Shape Index>
0.38095

>  <Molecular Flexibility>
0.41905

>  <Molecular Complexity>
0.89747

>  <Electronegative Atoms>
8

>  <Stereo Centers>
2

>  <Rotatable Bonds>
1

>  <Rings Closures>
2

>  <Aromatic Rings>
0

>  <Aromatic Atoms>
0

>  <Amides>
0

>  <Amines>
0

>  <Aromatic Nitrogens>
0

>  <Shape Index 2>
0.38095

>  <Molecular Flexibility 2>
0.41905

>  <Molecular Complexity 2>
0.89747

>  <Non-C/H Atoms>
8

>  <Electronegative Atoms 2>
8

>  <Stereo Centers 2>
2

>  <Rotatable Bonds 2>
1

>  <Rings Closures 2>
2

>  <Aromatic Rings 2>
0

>  <Aromatic Atoms 2>
0

>  <sp3-Atoms>
9

>  <Amides 2>
0

>  <Amines 2>
0

>  <Aromatic Nitrogens 2>
0

>  <Basic Nitrogens>
0

$$$$
Pirimicarb
Actelion Java MolfileCreator 2.0

  0  0  0  0  0  0              0 V3000
M  V30 BEGIN CTAB
M  V30 COUNTS 17 17 0 0 0
M  V30 BEGIN ATOM
M  V30 1 O 0.0 0.0 0.0 0
M  V30 2 C -0.0118 1.5148 0.0 0
M  V30 3 O 1.2781 2.2723 0.0 0
M  V30 4 N -1.3255 2.2723 0.0 0
M  V30 5 C 2.5682 1.5267 0.0 0
M  V30 6 C -1.3373 3.7872 0.0 0
M  V30 7 C -2.6392 1.5267 0.0 0
M  V30 8 N 2.5563 0.0355 0.0 0
M  V30 9 C 3.8582 2.2841 0.0 0
M  V30 10 C 3.8464 -0.7101 0.0 0
M  V30 11 C 5.1482 1.5385 0.0 0
M  V30 12 C 3.8464 3.799 0.0 0
M  V30 13 N 5.1364 0.0473 0.0 0
M  V30 14 N 3.8345 -2.2013 0.0 0
M  V30 15 C 6.4383 2.296 0.0 0
M  V30 16 C 2.5208 -2.9469 0.0 0
M  V30 17 C 5.1246 -2.9469 0.0 0
M  V30 END ATOM
M  V30 BEGIN BOND
M  V30 1 2 1 2
M  V30 2 1 2 3
M  V30 3 1 2 4
M  V30 4 1 3 5
M  V30 5 1 4 6
M  V30 6 1 4 7
M  V30 7 2 5 8
M  V30 8 1 5 9
M  V30 9 1 8 10
M  V30 10 2 9 11
M  V30 11 1 9 12
M  V30 12 2 10 13
M  V30 13 1 10 14
M  V30 14 1 11 15
M  V30 15 1 14 16
M  V30 16 1 14 17
M  V30 17 1 11 13
M  V30 END BOND
M  V30 END CTAB
M  END
>  <Molecule Name>
Pirimicarb

>  <Order (spectra)>
263

>  <NAME>
Pirimicarb

>  <Molecular Formula>
C11H18N4O2

>  <Monoisotopic Mass>
238.142976

>  <SMILES>
CN(C)C(=O)OC1=C(C)C(C)=NC(=N1)N(C)C

>  <InChI>
InChI=1S/C11H18N4O2/c1-7-8(2)12-10(14(3)4)13-9(7)17-11(16)15(5)6/h1-6H3

>  <InChIKey>
YFGYUFNIOHWBOB-UHFFFAOYSA-N

>  <Kingdom>
Organic compounds

>  <Superclass>
Organic nitrogen compounds

>  <Class>
Organonitrogen compounds

>  <Subclass>
Amines

>  <Parent Level 1>
Tertiary amines

>  <Parent Level 2>
Tertiary alkylarylamines

>  <Parent Level 3>
Dialkylarylamines

>  <cLogP>
1.4377

>  <cLogS>
-2.273

>  <Druglikeness>
-2.2133

>  <NP-class probability>
0.16

>  <SmilesFragFp 3>


>  <MS_READY_SMILES>
CN(C)C(=O)OC1=C(C)C(C)=NC(=N1)N(C)C

>  <MS_READY_InChI>
InChI=1S/C11H18N4O2/c1-7-8(2)12-10(14(3)4)13-9(7)17-11(16)15(5)6/h1-6H3

>  <QSAR_READY_SMILES>
CN(C)C(=O)OC1=C(C)C(C)=NC(=N1)N(C)C

>  <QSAR_READY_InChI>
InChI=1S/C11H18N4O2/c1-7-8(2)12-10(14(3)4)13-9(7)17-11(16)15(5)6/h1-6H3

>  <DTXSID>
DTXSID1032569

>  <DTXCID>
DTXCID9012569

>  <CASRN>
23103-98-2

>  <EXPOCAST_MEDIAN_EXPOSURE_PREDICTION_MG/KG-BW/DAY>
3.48E-07

>  <BIOCONCENTRATION_FACTOR_TEST_PRED>
4.68813

>  <BOILING_POINT_DEGC_TEST_PRED>
316.863

>  <48HR_DAPHNIA_LC50_MOL/L_TEST_PRED>
5.13E-06

>  <DENSITY_G/CM^3_TEST_PRED>
1.134

>  <DEVTOX_TEST_PRED>
0.873

>  <96HR_FATHEAD_MINNOW_MOL/L_TEST_PRED>
0.000128825

>  <FLASH_POINT_DEGC_TEST_PRED>
159.4

>  <MELTING_POINT_DEGC_TEST_PRED>
92.423

>  <AMES_MUTAGENICITY_TEST_PRED>
0.68

>  <ORAL_RAT_LD50_MOL/KG_TEST_PRED>
0.000452898

>  <SURFACE_TENSION_DYN/CM_TEST_PRED>
-

>  <THERMAL_CONDUCTIVITY_MW/(M*K)_TEST_PRED>
-

>  <TETRAHYMENA_PYRIFORMIS_IGC50_MOL/L_TEST_PRED>
-

>  <VISCOSITY_CP_CP_TEST_PRED>
-

>  <VAPOR_PRESSURE_MMHG_TEST_PRED>
0.000020893

>  <WATER_SOLUBILITY_MOL/L_TEST_PRED>
0.00557186

>  <ATMOSPHERIC_HYDROXYLATION_RATE_(AOH)_CM3/MOLECULE*SEC_OPERA_PRED>
1.52E-11

>  <BIOCONCENTRATION_FACTOR_OPERA_PRED>
6.82077

>  <BIODEGRADATION_HALF_LIFE_DAYS_DAYS_OPERA_PRED>
3.81633

>  <BOILING_POINT_DEGC_OPERA_PRED>
310.369

>  <HENRYS_LAW_ATM-M3/MOLE_OPERA_PRED>
3.22E-09

>  <OPERA_KM_DAYS_OPERA_PRED>
0.603817

>  <OCTANOL_AIR_PARTITION_COEFF_LOGKOA_OPERA_PRED>
8.63262

>  <SOIL_ADSORPTION_COEFFICIENT_KOC_L/KG_OPERA_PRED>
79.5512

>  <OCTANOL_WATER_PARTITION_LOGP_OPERA_PRED>
1.6979

>  <MELTING_POINT_DEGC_OPERA_PRED>
90.5438

>  <VAPOR_PRESSURE_MMHG_OPERA_PRED>
7.27E-06

>  <WATER_SOLUBILITY_MOL/L_OPERA_PRED>
0.0116253

>  <Shape Index>
0.52941

>  <Molecular Flexibility>
0.29385

>  <Molecular Complexity>
0.72591

>  <Electronegative Atoms>
6

>  <Stereo Centers>
0

>  <Rotatable Bonds>
3

>  <Rings Closures>
1

>  <Aromatic Rings>
1

>  <Aromatic Atoms>
6

>  <Amides>
1

>  <Amines>
0

>  <Aromatic Nitrogens>
2

>  <Shape Index 2>
0.52941

>  <Molecular Flexibility 2>
0.29385

>  <Molecular Complexity 2>
0.72591

>  <Non-C/H Atoms>
6

>  <Electronegative Atoms 2>
6

>  <Stereo Centers 2>
0

>  <Rotatable Bonds 2>
3

>  <Rings Closures 2>
1

>  <Aromatic Rings 2>
1

>  <Aromatic Atoms 2>
6

>  <sp3-Atoms>
7

>  <Amides 2>
1

>  <Amines 2>
0

>  <Aromatic Nitrogens 2>
2

>  <Basic Nitrogens>
0

$$$$
Cashmeran
Actelion Java MolfileCreator 2.0

  0  0  0  0  0  0              0 V3000
M  V30 BEGIN CTAB
M  V30 COUNTS 15 16 0 0 0
M  V30 BEGIN ATOM
M  V30 1 O 0.0 0.0 0.0 0
M  V30 2 C -0.7639 1.3045 0.0 0
M  V30 3 C -2.2682 1.3162 0.0 0
M  V30 4 C -0.0235 2.609 0.0 0
M  V30 5 C -3.0321 2.6207 0.0 0
M  V30 6 C -3.2789 0.2232 0.0 0
M  V30 7 C -0.7874 3.9135 0.0 0
M  V30 8 C -4.5011 2.3269 0.0 0
M  V30 9 C -2.2917 3.9252 0.0 0
M  V30 10 C -4.6539 0.8461 0.0 0 CFG=2
M  V30 11 C -3.749 -1.1869 0.0 0
M  V30 12 C -2.2917 -0.8696 0.0 0
M  V30 13 C -4.9712 3.7607 0.0 0
M  V30 14 C -5.9702 2.6442 0.0 0
M  V30 15 C -5.9584 0.1057 0.0 0
M  V30 END ATOM
M  V30 BEGIN BOND
M  V30 1 2 1 2
M  V30 2 1 2 3
M  V30 3 1 2 4
M  V30 4 2 3 5
M  V30 5 1 3 6
M  V30 6 1 4 7
M  V30 7 1 5 8
M  V30 8 1 5 9
M  V30 9 1 6 10
M  V30 10 1 6 11
M  V30 11 1 6 12
M  V30 12 1 8 13
M  V30 13 1 8 14
M  V30 14 1 10 15 CFG=1
M  V30 15 1 7 9
M  V30 16 1 8 10
M  V30 END BOND
M  V30 BEGIN COLLECTION
M  V30 MDLV30/STERAC1 ATOMS=(1 10)
M  V30 END COLLECTION
M  V30 END CTAB
M  END
>  <Molecule Name>
Cashmeran

>  <Order (spectra)>
150

>  <NAME>
Cashmeran

>  <Molecular Formula>
C14H22O

>  <Monoisotopic Mass>
206.167065

>  <SMILES>
CC1C(C)(C)C2=C(C(=O)CCC2)C1(C)C

>  <InChI>
InChI=1S/C14H22O/c1-9-13(2,3)10-7-6-8-11(15)12(10)14(9,4)5/h9H,6-8H2,1-5H3/t9-/m1/s1

>  <InChIKey>
MIZGSAALSYARKU-UHFFFAOYSA-N

>  <Kingdom>
Organic compounds

>  <Superclass>
Organic oxygen compounds

>  <Class>
Organooxygen compounds

>  <Subclass>
Carbonyl compounds

>  <Parent Level 1>
Ketones

>  <Parent Level 2>
Cyclic ketones

>  <Parent Level 3>
Cyclohexenones

>  <cLogP>
3.4683

>  <cLogS>
-3.012

>  <Druglikeness>
-5.1932

>  <NP-class probability>
1

>  <SmilesFragFp 3>


>  <MS_READY_SMILES>
CC1C(C)(C)C2=C(C(=O)CCC2)C1(C)C

>  <MS_READY_InChI>
InChI=1S/C14H22O/c1-9-13(2,3)10-7-6-8-11(15)12(10)14(9,4)5/h9H,6-8H2,1-5H3/t9-/m1/s1

>  <QSAR_READY_SMILES>
CC1C(C)(C)C2=C(C(=O)CCC2)C1(C)C

>  <QSAR_READY_InChI>
InChI=1S/C14H22O/c1-9-13(2,3)10-7-6-8-11(15)12(10)14(9,4)5/h9H,6-8H2,1-5H3/t9-/m1/s1

>  <DTXSID>
DTXSID8047399

>  <DTXCID>
DTXCID6027399

>  <CASRN>
33704-61-9

>  <EXPOCAST_MEDIAN_EXPOSURE_PREDICTION_MG/KG-BW/DAY>
3.74E-05

>  <BIOCONCENTRATION_FACTOR_TEST_PRED>
43.9542

>  <BOILING_POINT_DEGC_TEST_PRED>
253.712

>  <48HR_DAPHNIA_LC50_MOL/L_TEST_PRED>
2.59E-06

>  <DENSITY_G/CM^3_TEST_PRED>
0.983

>  <DEVTOX_TEST_PRED>
0.356

>  <96HR_FATHEAD_MINNOW_MOL/L_TEST_PRED>
4.06E-05

>  <FLASH_POINT_DEGC_TEST_PRED>
120.097

>  <MELTING_POINT_DEGC_TEST_PRED>
91.222

>  <AMES_MUTAGENICITY_TEST_PRED>
0.22

>  <ORAL_RAT_LD50_MOL/KG_TEST_PRED>
0.00648634

>  <SURFACE_TENSION_DYN/CM_TEST_PRED>
35.085

>  <THERMAL_CONDUCTIVITY_MW/(M*K)_TEST_PRED>
-

>  <TETRAHYMENA_PYRIFORMIS_IGC50_MOL/L_TEST_PRED>
4.51E-05

>  <VISCOSITY_CP_CP_TEST_PRED>
-

>  <VAPOR_PRESSURE_MMHG_TEST_PRED>
0.0142889

>  <WATER_SOLUBILITY_MOL/L_TEST_PRED>
0.000114288

>  <ATMOSPHERIC_HYDROXYLATION_RATE_(AOH)_CM3/MOLECULE*SEC_OPERA_PRED>
1.81E-11

>  <BIOCONCENTRATION_FACTOR_OPERA_PRED>
168.596

>  <BIODEGRADATION_HALF_LIFE_DAYS_DAYS_OPERA_PRED>
5.36478

>  <BOILING_POINT_DEGC_OPERA_PRED>
241.839

>  <HENRYS_LAW_ATM-M3/MOLE_OPERA_PRED>
0.000256906

>  <OPERA_KM_DAYS_OPERA_PRED>
16.9861

>  <OCTANOL_AIR_PARTITION_COEFF_LOGKOA_OPERA_PRED>
6.35538

>  <SOIL_ADSORPTION_COEFFICIENT_KOC_L/KG_OPERA_PRED>
3779.3

>  <OCTANOL_WATER_PARTITION_LOGP_OPERA_PRED>
3.84869

>  <MELTING_POINT_DEGC_OPERA_PRED>
48.384

>  <VAPOR_PRESSURE_MMHG_OPERA_PRED>
0.0219308

>  <WATER_SOLUBILITY_MOL/L_OPERA_PRED>
0.000312689

>  <Shape Index>
0.4

>  <Molecular Flexibility>
0.1112

>  <Molecular Complexity>
0.79924

>  <Electronegative Atoms>
1

>  <Stereo Centers>
1

>  <Rotatable Bonds>
0

>  <Rings Closures>
2

>  <Aromatic Rings>
0

>  <Aromatic Atoms>
0

>  <Amides>
0

>  <Amines>
0

>  <Aromatic Nitrogens>
0

>  <Shape Index 2>
0.4

>  <Molecular Flexibility 2>
0.1112

>  <Molecular Complexity 2>
0.79924

>  <Non-C/H Atoms>
1

>  <Electronegative Atoms 2>
1

>  <Stereo Centers 2>
1

>  <Rotatable Bonds 2>
0

>  <Rings Closures 2>
2

>  <Aromatic Rings 2>
0

>  <Aromatic Atoms 2>
0

>  <sp3-Atoms>
11

>  <Amides 2>
0

>  <Amines 2>
0

>  <Aromatic Nitrogens 2>
0

>  <Basic Nitrogens>
0

$$$$
Quinoxyfen
Actelion Java MolfileCreator 2.0

  0  0  0  0  0  0              0 V3000
M  V30 BEGIN CTAB
M  V30 COUNTS 20 22 0 0 0
M  V30 BEGIN ATOM
M  V30 1 Cl 0.0 0.0 0.0 0
M  V30 2 C 1.2903 -0.7339 0.0 0
M  V30 3 C 1.2785 -2.2256 0.0 0
M  V30 4 C 2.5807 0.0236 0.0 0
M  V30 5 C -0.0355 -2.9714 0.0 0
M  V30 6 C 2.5689 -2.9714 0.0 0
M  V30 7 C 3.8711 -0.7221 0.0 0
M  V30 8 O -1.3495 -2.2137 0.0 0
M  V30 9 C -0.0473 -4.4631 0.0 0
M  V30 10 N 2.5571 -4.4631 0.0 0
M  V30 11 C 3.8593 -2.2137 0.0 0
M  V30 12 Cl 5.1615 0.0355 0.0 0
M  V30 13 C -2.6636 -2.9596 0.0 0
M  V30 14 C 1.243 -5.197 0.0 0
M  V30 15 C -3.9777 -2.2019 0.0 0
M  V30 16 C -2.6754 -4.4512 0.0 0
M  V30 17 C -5.2918 -2.9359 0.0 0
M  V30 18 C -3.9895 -5.197 0.0 0
M  V30 19 C -5.3036 -4.4275 0.0 0
M  V30 20 F -6.6177 -5.1734 0.0 0
M  V30 END ATOM
M  V30 BEGIN BOND
M  V30 1 1 1 2
M  V30 2 1 2 3
M  V30 3 2 2 4
M  V30 4 2 3 5
M  V30 5 1 3 6
M  V30 6 1 4 7
M  V30 7 1 5 8
M  V30 8 1 5 9
M  V30 9 2 6 10
M  V30 10 1 6 11
M  V30 11 1 7 12
M  V30 12 1 8 13
M  V30 13 2 9 14
M  V30 14 2 13 15
M  V30 15 1 13 16
M  V30 16 1 15 17
M  V30 17 2 16 18
M  V30 18 2 17 19
M  V30 19 1 19 20
M  V30 20 2 7 11
M  V30 21 1 10 14
M  V30 22 1 18 19
M  V30 END BOND
M  V30 END CTAB
M  END
>  <Molecule Name>
Quinoxyfen

>  <Order (spectra)>
299

>  <NAME>
Quinoxyfen

>  <Molecular Formula>
C15H8NOCl2F

>  <Monoisotopic Mass>
306.996696

>  <SMILES>
FC1=CC=C(OC2=CC=NC3=CC(Cl)=CC(Cl)=C23)C=C1

>  <InChI>
InChI=1S/C15H8Cl2FNO/c16-9-7-12(17)15-13(8-9)19-6-5-14(15)20-11-3-1-10(18)2-4-11/h1-8H

>  <InChIKey>
WRPIRSINYZBGPK-UHFFFAOYSA-N

>  <Kingdom>
Organic compounds

>  <Superclass>
Organic oxygen compounds

>  <Class>
Organooxygen compounds

>  <Subclass>
Ethers

>  <Parent Level 1>
Diarylethers

>  <Parent Level 2>


>  <Parent Level 3>


>  <cLogP>
4.684

>  <cLogS>
-6.405

>  <Druglikeness>
-3.1098

>  <NP-class probability>
0.04

>  <SmilesFragFp 3>


>  <MS_READY_SMILES>
FC1=CC=C(OC2=CC=NC3=CC(Cl)=CC(Cl)=C23)C=C1

>  <MS_READY_InChI>
InChI=1S/C15H8Cl2FNO/c16-9-7-12(17)15-13(8-9)19-6-5-14(15)20-11-3-1-10(18)2-4-11/h1-8H

>  <QSAR_READY_SMILES>
FC1=CC=C(OC2=CC=NC3=CC(Cl)=CC(Cl)=C23)C=C1

>  <QSAR_READY_InChI>
InChI=1S/C15H8Cl2FNO/c16-9-7-12(17)15-13(8-9)19-6-5-14(15)20-11-3-1-10(18)2-4-11/h1-8H

>  <DTXSID>
DTXSID2034881

>  <DTXCID>
DTXCID0014881

>  <CASRN>
124495-18-7

>  <EXPOCAST_MEDIAN_EXPOSURE_PREDICTION_MG/KG-BW/DAY>
1.85E-07

>  <BIOCONCENTRATION_FACTOR_TEST_PRED>
1081.43

>  <BOILING_POINT_DEGC_TEST_PRED>
370.344

>  <48HR_DAPHNIA_LC50_MOL/L_TEST_PRED>
5.89E-07

>  <DENSITY_G/CM^3_TEST_PRED>
1.497

>  <DEVTOX_TEST_PRED>
0.621

>  <96HR_FATHEAD_MINNOW_MOL/L_TEST_PRED>
5.25E-07

>  <FLASH_POINT_DEGC_TEST_PRED>
197.258

>  <MELTING_POINT_DEGC_TEST_PRED>
127

>  <AMES_MUTAGENICITY_TEST_PRED>
0.401

>  <ORAL_RAT_LD50_MOL/KG_TEST_PRED>
0.00321366

>  <SURFACE_TENSION_DYN/CM_TEST_PRED>
-

>  <THERMAL_CONDUCTIVITY_MW/(M*K)_TEST_PRED>
126.76

>  <TETRAHYMENA_PYRIFORMIS_IGC50_MOL/L_TEST_PRED>
3.38E-06

>  <VISCOSITY_CP_CP_TEST_PRED>
-

>  <VAPOR_PRESSURE_MMHG_TEST_PRED>
3.21E-07

>  <WATER_SOLUBILITY_MOL/L_TEST_PRED>
6.18E-07

>  <ATMOSPHERIC_HYDROXYLATION_RATE_(AOH)_CM3/MOLECULE*SEC_OPERA_PRED>
1.10E-11

>  <BIOCONCENTRATION_FACTOR_OPERA_PRED>
613.86

>  <BIODEGRADATION_HALF_LIFE_DAYS_DAYS_OPERA_PRED>
3.54895

>  <BOILING_POINT_DEGC_OPERA_PRED>
373.057

>  <HENRYS_LAW_ATM-M3/MOLE_OPERA_PRED>
1.92E-06

>  <OPERA_KM_DAYS_OPERA_PRED>
1.08746

>  <OCTANOL_AIR_PARTITION_COEFF_LOGKOA_OPERA_PRED>
9.86724

>  <SOIL_ADSORPTION_COEFFICIENT_KOC_L/KG_OPERA_PRED>
6921.85

>  <OCTANOL_WATER_PARTITION_LOGP_OPERA_PRED>
4.65989

>  <MELTING_POINT_DEGC_OPERA_PRED>
106.759

>  <VAPOR_PRESSURE_MMHG_OPERA_PRED>
1.49E-07

>  <WATER_SOLUBILITY_MOL/L_OPERA_PRED>
2.38E-07

>  <Shape Index>
0.6

>  <Molecular Flexibility>
0.39517

>  <Molecular Complexity>
0.8075

>  <Electronegative Atoms>
5

>  <Stereo Centers>
0

>  <Rotatable Bonds>
2

>  <Rings Closures>
3

>  <Aromatic Rings>
3

>  <Aromatic Atoms>
16

>  <Amides>
0

>  <Amines>
0

>  <Aromatic Nitrogens>
1

>  <Shape Index 2>
0.6

>  <Molecular Flexibility 2>
0.39517

>  <Molecular Complexity 2>
0.8075

>  <Non-C/H Atoms>
5

>  <Electronegative Atoms 2>
5

>  <Stereo Centers 2>
0

>  <Rotatable Bonds 2>
2

>  <Rings Closures 2>
3

>  <Aromatic Rings 2>
3

>  <Aromatic Atoms 2>
16

>  <sp3-Atoms>
1

>  <Amides 2>
0

>  <Amines 2>
0

>  <Aromatic Nitrogens 2>
1

>  <Basic Nitrogens>
0

$$$$
Spiroxamine
Actelion Java MolfileCreator 2.0

  0  0  0  0  0  0              0 V3000
M  V30 BEGIN CTAB
M  V30 COUNTS 21 22 0 0 0
M  V30 BEGIN ATOM
M  V30 1 O 0.0 0.0 0.0 0
M  V30 2 C 0.9912 1.121 0.0 0
M  V30 3 C -1.3806 0.6254 0.0 0 CFG=2
M  V30 4 O 0.236 2.4309 0.0 0
M  V30 5 C 1.593 -0.236 0.0 0
M  V30 6 C 1.8645 2.3483 0.0 0
M  V30 7 C -1.239 2.1241 0.0 0
M  V30 8 C -2.6905 -0.118 0.0 0
M  V30 9 C 3.0681 -0.3776 0.0 0
M  V30 10 C 3.3396 2.2067 0.0 0
M  V30 11 N -4.0004 0.6372 0.0 0
M  V30 12 C 3.9414 0.8496 0.0 0
M  V30 13 C -5.3103 -0.1062 0.0 0
M  V30 14 C -4.0122 2.1477 0.0 0
M  V30 15 C 5.4165 0.708 0.0 0
M  V30 16 C -6.6201 0.649 0.0 0
M  V30 17 C -5.3221 2.9029 0.0 0
M  V30 18 C 5.5581 2.2067 0.0 0
M  V30 19 C 6.8916 0.5664 0.0 0
M  V30 20 C 5.2513 -0.767 0.0 0
M  V30 21 C -7.93 -0.0944 0.0 0
M  V30 END ATOM
M  V30 BEGIN BOND
M  V30 1 1 1 2
M  V30 2 1 1 3
M  V30 3 1 2 4
M  V30 4 1 2 5
M  V30 5 1 2 6
M  V30 6 1 3 7
M  V30 7 1 3 8 CFG=1
M  V30 8 1 5 9
M  V30 9 1 6 10
M  V30 10 1 8 11
M  V30 11 1 9 12
M  V30 12 1 11 13
M  V30 13 1 11 14
M  V30 14 1 12 15
M  V30 15 1 13 16
M  V30 16 1 14 17
M  V30 17 1 15 18
M  V30 18 1 15 19
M  V30 19 1 15 20
M  V30 20 1 16 21
M  V30 21 1 4 7
M  V30 22 1 10 12
M  V30 END BOND
M  V30 BEGIN COLLECTION
M  V30 MDLV30/STERAC1 ATOMS=(1 3)
M  V30 END COLLECTION
M  V30 END CTAB
M  END
>  <Molecule Name>
Spiroxamine

>  <Order (spectra)>
305

>  <NAME>
Spiroxamine

>  <Molecular Formula>
C18H35NO2

>  <Monoisotopic Mass>
297.266779

>  <SMILES>
CCCN(CC)CC1COC2(CCC(CC2)C(C)(C)C)O1

>  <InChI>
InChI=1S/C18H35NO2/c1-6-12-19(7-2)13-16-14-20-18(21-16)10-8-15(9-11-18)17(3,4)5/h15-16H,6-14H2,1-5H3/t15?,16-,18?/m0/s1

>  <InChIKey>
PUYXTUJWRLOUCW-UHFFFAOYSA-N

>  <Kingdom>
Organic compounds

>  <Superclass>
Organic oxygen compounds

>  <Class>
Organooxygen compounds

>  <Subclass>
Ethers

>  <Parent Level 1>
Acetals

>  <Parent Level 2>
Ketals

>  <Parent Level 3>


>  <cLogP>
3.5984

>  <cLogS>
-2.974

>  <Druglikeness>
-1.6786

>  <NP-class probability>
0.17

>  <SmilesFragFp 3>


>  <MS_READY_SMILES>
CCCN(CC)CC1COC2(CCC(CC2)C(C)(C)C)O1

>  <MS_READY_InChI>
InChI=1S/C18H35NO2/c1-6-12-19(7-2)13-16-14-20-18(21-16)10-8-15(9-11-18)17(3,4)5/h15-16H,6-14H2,1-5H3/t15?,16-,18?/m0/s1

>  <QSAR_READY_SMILES>
CCCN(CC)CC1COC2(CCC(CC2)C(C)(C)C)O1

>  <QSAR_READY_InChI>
InChI=1S/C18H35NO2/c1-6-12-19(7-2)13-16-14-20-18(21-16)10-8-15(9-11-18)17(3,4)5/h15-16H,6-14H2,1-5H3/t15?,16-,18?/m0/s1

>  <DTXSID>
DTXSID1034212

>  <DTXCID>
DTXCID9014212

>  <CASRN>
118134-30-8

>  <EXPOCAST_MEDIAN_EXPOSURE_PREDICTION_MG/KG-BW/DAY>
2.39E-06

>  <BIOCONCENTRATION_FACTOR_TEST_PRED>
150.314

>  <BOILING_POINT_DEGC_TEST_PRED>
278.97

>  <48HR_DAPHNIA_LC50_MOL/L_TEST_PRED>
1.35E-05

>  <DENSITY_G/CM^3_TEST_PRED>
0.899

>  <DEVTOX_TEST_PRED>
0.305

>  <96HR_FATHEAD_MINNOW_MOL/L_TEST_PRED>
0.000139316

>  <FLASH_POINT_DEGC_TEST_PRED>
147.923

>  <MELTING_POINT_DEGC_TEST_PRED>
40.222

>  <AMES_MUTAGENICITY_TEST_PRED>
0.242

>  <ORAL_RAT_LD50_MOL/KG_TEST_PRED>
0.00672977

>  <SURFACE_TENSION_DYN/CM_TEST_PRED>
30.824

>  <THERMAL_CONDUCTIVITY_MW/(M*K)_TEST_PRED>
135.693

>  <TETRAHYMENA_PYRIFORMIS_IGC50_MOL/L_TEST_PRED>
9.53E-06

>  <VISCOSITY_CP_CP_TEST_PRED>
13.3352

>  <VAPOR_PRESSURE_MMHG_TEST_PRED>
7.29E-05

>  <WATER_SOLUBILITY_MOL/L_TEST_PRED>
0.000240436

>  <ATMOSPHERIC_HYDROXYLATION_RATE_(AOH)_CM3/MOLECULE*SEC_OPERA_PRED>
1.65E-11

>  <BIOCONCENTRATION_FACTOR_OPERA_PRED>
35.4985

>  <BIODEGRADATION_HALF_LIFE_DAYS_DAYS_OPERA_PRED>
15.2027

>  <BOILING_POINT_DEGC_OPERA_PRED>
321.358

>  <HENRYS_LAW_ATM-M3/MOLE_OPERA_PRED>
7.64E-07

>  <OPERA_KM_DAYS_OPERA_PRED>
6.64561

>  <OCTANOL_AIR_PARTITION_COEFF_LOGKOA_OPERA_PRED>
8.97018

>  <SOIL_ADSORPTION_COEFFICIENT_KOC_L/KG_OPERA_PRED>
1720.95

>  <OCTANOL_WATER_PARTITION_LOGP_OPERA_PRED>
4.61567

>  <MELTING_POINT_DEGC_OPERA_PRED>
-7.11871

>  <VAPOR_PRESSURE_MMHG_OPERA_PRED>
0.00012739

>  <WATER_SOLUBILITY_MOL/L_OPERA_PRED>
0.00145292

>  <Shape Index>
0.61905

>  <Molecular Flexibility>
0.52096

>  <Molecular Complexity>
0.67908

>  <Electronegative Atoms>
3

>  <Stereo Centers>
1

>  <Rotatable Bonds>
6

>  <Rings Closures>
2

>  <Aromatic Rings>
0

>  <Aromatic Atoms>
0

>  <Amides>
0

>  <Amines>
1

>  <Aromatic Nitrogens>
0

>  <Shape Index 2>
0.61905

>  <Molecular Flexibility 2>
0.52096

>  <Molecular Complexity 2>
0.67908

>  <Non-C/H Atoms>
3

>  <Electronegative Atoms 2>
3

>  <Stereo Centers 2>
1

>  <Rotatable Bonds 2>
6

>  <Rings Closures 2>
2

>  <Aromatic Rings 2>
0

>  <Aromatic Atoms 2>
0

>  <sp3-Atoms>
21

>  <Amides 2>
0

>  <Amines 2>
1

>  <Aromatic Nitrogens 2>
0

>  <Basic Nitrogens>
1

$$$$
Acephate
Actelion Java MolfileCreator 2.0

  0  0  0  0  0  0              0 V3000
M  V30 BEGIN CTAB
M  V30 COUNTS 10 9 0 0 0
M  V30 BEGIN ATOM
M  V30 1 S 0.0 0.0 0.0 0
M  V30 2 P -1.3072 0.7537 0.0 0 CFG=2
M  V30 3 C 1.2836 0.7537 0.0 0
M  V30 4 O -1.3189 -0.7301 0.0 0
M  V30 5 O -1.3189 2.2611 0.0 0
M  V30 6 N -2.6144 0.0117 0.0 0
M  V30 7 C -0.0353 3.0148 0.0 0
M  V30 8 C -3.9216 0.7654 0.0 0
M  V30 9 O -3.9334 2.2728 0.0 0
M  V30 10 C -5.2288 0.0235 0.0 0
M  V30 END ATOM
M  V30 BEGIN BOND
M  V30 1 1 2 1 CFG=1
M  V30 2 1 1 3
M  V30 3 2 2 4
M  V30 4 1 2 5
M  V30 5 1 2 6
M  V30 6 1 5 7
M  V30 7 1 6 8
M  V30 8 2 8 9
M  V30 9 1 8 10
M  V30 END BOND
M  V30 BEGIN COLLECTION
M  V30 MDLV30/STERAC1 ATOMS=(1 2)
M  V30 END COLLECTION
M  V30 END CTAB
M  END
>  <Molecule Name>
Acephate

>  <Order (spectra)>
239

>  <NAME>
Acephate

>  <Molecular Formula>
C4H10NO3PS

>  <Monoisotopic Mass>
183.011901

>  <SMILES>
COP(=O)(NC(C)=O)SC

>  <InChI>
InChI=1S/C4H10NO3PS/c1-4(6)5-9(7,8-2)10-3/h1-3H3,(H,5,6,7)/t9-/m1/s1

>  <InChIKey>
YASYVMFAVPKPKE-UHFFFAOYSA-N

>  <Kingdom>
Organic compounds

>  <Superclass>
Organophosphorus compounds

>  <Class>
Organothiophosphorus compounds

>  <Subclass>


>  <Parent Level 1>
Organothiophosphorus compounds

>  <Parent Level 2>


>  <Parent Level 3>


>  <cLogP>
-0.0781

>  <cLogS>
-0.65

>  <Druglikeness>
-9.5688

>  <NP-class probability>
0.36

>  <SmilesFragFp 3>


>  <MS_READY_SMILES>
COP(=O)(NC(C)=O)SC

>  <MS_READY_InChI>
InChI=1S/C4H10NO3PS/c1-4(6)5-9(7,8-2)10-3/h1-3H3,(H,5,6,7)/t9-/m1/s1

>  <QSAR_READY_SMILES>
COP(=O)(NC(C)=O)SC

>  <QSAR_READY_InChI>
InChI=1S/C4H10NO3PS/c1-4(6)5-9(7,8-2)10-3/h1-3H3,(H,5,6,7)/t9-/m1/s1

>  <DTXSID>
DTXSID8023846

>  <DTXCID>
DTXCID503846

>  <CASRN>
30560-19-1

>  <EXPOCAST_MEDIAN_EXPOSURE_PREDICTION_MG/KG-BW/DAY>
1.90E-07

>  <BIOCONCENTRATION_FACTOR_TEST_PRED>
-

>  <BOILING_POINT_DEGC_TEST_PRED>
-

>  <48HR_DAPHNIA_LC50_MOL/L_TEST_PRED>
2.10E-05

>  <DENSITY_G/CM^3_TEST_PRED>
1.207

>  <DEVTOX_TEST_PRED>
0.743

>  <96HR_FATHEAD_MINNOW_MOL/L_TEST_PRED>
-

>  <FLASH_POINT_DEGC_TEST_PRED>
133.808

>  <MELTING_POINT_DEGC_TEST_PRED>
48.542

>  <AMES_MUTAGENICITY_TEST_PRED>
0.202

>  <ORAL_RAT_LD50_MOL/KG_TEST_PRED>
0.00199986

>  <SURFACE_TENSION_DYN/CM_TEST_PRED>
-

>  <THERMAL_CONDUCTIVITY_MW/(M*K)_TEST_PRED>
-

>  <TETRAHYMENA_PYRIFORMIS_IGC50_MOL/L_TEST_PRED>
-

>  <VISCOSITY_CP_CP_TEST_PRED>
-

>  <VAPOR_PRESSURE_MMHG_TEST_PRED>
-

>  <WATER_SOLUBILITY_MOL/L_TEST_PRED>
0.408319

>  <ATMOSPHERIC_HYDROXYLATION_RATE_(AOH)_CM3/MOLECULE*SEC_OPERA_PRED>
1.13E-11

>  <BIOCONCENTRATION_FACTOR_OPERA_PRED>
1.22245

>  <BIODEGRADATION_HALF_LIFE_DAYS_DAYS_OPERA_PRED>
3.55577

>  <BOILING_POINT_DEGC_OPERA_PRED>
286.783

>  <HENRYS_LAW_ATM-M3/MOLE_OPERA_PRED>
4.94E-09

>  <OPERA_KM_DAYS_OPERA_PRED>
0.108103

>  <OCTANOL_AIR_PARTITION_COEFF_LOGKOA_OPERA_PRED>
8.72198

>  <SOIL_ADSORPTION_COEFFICIENT_KOC_L/KG_OPERA_PRED>
2.01033

>  <OCTANOL_WATER_PARTITION_LOGP_OPERA_PRED>
-0.848194

>  <MELTING_POINT_DEGC_OPERA_PRED>
87.9791

>  <VAPOR_PRESSURE_MMHG_OPERA_PRED>
1.71E-06

>  <WATER_SOLUBILITY_MOL/L_OPERA_PRED>
4.38636

>  <Shape Index>
0.6

>  <Molecular Flexibility>
0.851

>  <Molecular Complexity>
0.74893

>  <Electronegative Atoms>
6

>  <Stereo Centers>
1

>  <Rotatable Bonds>
2

>  <Rings Closures>
0

>  <Aromatic Rings>
0

>  <Aromatic Atoms>
0

>  <Amides>
0

>  <Amines>
0

>  <Aromatic Nitrogens>
0

>  <Shape Index 2>
0.6

>  <Molecular Flexibility 2>
0.851

>  <Molecular Complexity 2>
0.74893

>  <Non-C/H Atoms>
6

>  <Electronegative Atoms 2>
6

>  <Stereo Centers 2>
1

>  <Rotatable Bonds 2>
2

>  <Rings Closures 2>
0

>  <Aromatic Rings 2>
0

>  <Aromatic Atoms 2>
0

>  <sp3-Atoms>
6

>  <Amides 2>
0

>  <Amines 2>
0

>  <Aromatic Nitrogens 2>
0

>  <Basic Nitrogens>
0

$$$$
Eucalyptol
Actelion Java MolfileCreator 2.0

  0  0  0  0  0  0              0 V3000
M  V30 BEGIN CTAB
M  V30 COUNTS 11 12 0 0 0
M  V30 BEGIN ATOM
M  V30 1 O 0.0 0.0 0.0 0
M  V30 2 C 0.1531 -1.3169 0.0 0
M  V30 3 C 1.0565 0.8268 0.0 0
M  V30 4 C 1.4853 -1.6844 0.0 0
M  V30 5 C 2.0825 -2.7716 0.0 0
M  V30 6 C -1.0259 -1.9753 0.0 0
M  V30 7 C 2.2816 0.3062 0.0 0
M  V30 8 C 1.5772 2.0825 0.0 0
M  V30 9 C 0.2296 1.9141 0.0 0
M  V30 10 C 2.2816 -1.0565 0.0 0
M  V30 11 C 3.1391 -1.9447 0.0 0
M  V30 END ATOM
M  V30 BEGIN BOND
M  V30 1 1 1 2
M  V30 2 1 1 3
M  V30 3 1 2 4
M  V30 4 1 2 5
M  V30 5 1 2 6
M  V30 6 1 3 7
M  V30 7 1 3 8
M  V30 8 1 3 9
M  V30 9 1 4 10
M  V30 10 1 5 11
M  V30 11 1 7 10
M  V30 12 1 7 11
M  V30 END BOND
M  V30 END CTAB
M  END
>  <Molecule Name>
Eucalyptol

>  <Order (spectra)>
144

>  <NAME>
Eucalyptol

>  <Molecular Formula>
C10H18O

>  <Monoisotopic Mass>
154.135765

>  <SMILES>
CC12CCC(CC1)C(C)(C)O2

>  <InChI>
InChI=1S/C10H18O/c1-9(2)8-4-6-10(3,11-9)7-5-8/h8H,4-7H2,1-3H3

>  <InChIKey>
WEEGYLXZBRQIMU-UHFFFAOYSA-N

>  <Kingdom>
Organic compounds

>  <Superclass>
Organoheterocyclic compounds

>  <Class>
Oxanes

>  <Subclass>


>  <Parent Level 1>
Oxanes

>  <Parent Level 2>


>  <Parent Level 3>


>  <cLogP>
2.1095

>  <cLogS>
-2.481

>  <Druglikeness>
-3.2148

>  <NP-class probability>
0.99

>  <SmilesFragFp 3>


>  <MS_READY_SMILES>
CC12CCC(CC1)C(C)(C)O2

>  <MS_READY_InChI>
InChI=1S/C10H18O/c1-9(2)8-4-6-10(3,11-9)7-5-8/h8H,4-7H2,1-3H3

>  <QSAR_READY_SMILES>
CC12CCC(CC1)C(C)(C)O2

>  <QSAR_READY_InChI>
InChI=1S/C10H18O/c1-9(2)8-4-6-10(3,11-9)7-5-8/h8H,4-7H2,1-3H3

>  <DTXSID>
DTXSID4020616

>  <DTXCID>
DTXCID60616

>  <CASRN>
470-82-6

>  <EXPOCAST_MEDIAN_EXPOSURE_PREDICTION_MG/KG-BW/DAY>
3.08E-05

>  <BIOCONCENTRATION_FACTOR_TEST_PRED>
59.9791

>  <BOILING_POINT_DEGC_TEST_PRED>
181.884

>  <48HR_DAPHNIA_LC50_MOL/L_TEST_PRED>
0.000166341

>  <DENSITY_G/CM^3_TEST_PRED>
0.88

>  <DEVTOX_TEST_PRED>
0.632

>  <96HR_FATHEAD_MINNOW_MOL/L_TEST_PRED>
0.000805378

>  <FLASH_POINT_DEGC_TEST_PRED>
49.312

>  <MELTING_POINT_DEGC_TEST_PRED>
11.564

>  <AMES_MUTAGENICITY_TEST_PRED>
0.113

>  <ORAL_RAT_LD50_MOL/KG_TEST_PRED>
0.0053827

>  <SURFACE_TENSION_DYN/CM_TEST_PRED>
27.55

>  <THERMAL_CONDUCTIVITY_MW/(M*K)_TEST_PRED>
109.58

>  <TETRAHYMENA_PYRIFORMIS_IGC50_MOL/L_TEST_PRED>
0.000776247

>  <VISCOSITY_CP_CP_TEST_PRED>
2.90402

>  <VAPOR_PRESSURE_MMHG_TEST_PRED>
1.00462

>  <WATER_SOLUBILITY_MOL/L_TEST_PRED>
0.00818465

>  <ATMOSPHERIC_HYDROXYLATION_RATE_(AOH)_CM3/MOLECULE*SEC_OPERA_PRED>
1.12E-11

>  <BIOCONCENTRATION_FACTOR_OPERA_PRED>
29.9881

>  <BIODEGRADATION_HALF_LIFE_DAYS_DAYS_OPERA_PRED>
110.298

>  <BOILING_POINT_DEGC_OPERA_PRED>
174.978

>  <HENRYS_LAW_ATM-M3/MOLE_OPERA_PRED>
0.00252879

>  <OPERA_KM_DAYS_OPERA_PRED>
0.378012

>  <OCTANOL_AIR_PARTITION_COEFF_LOGKOA_OPERA_PRED>
4.43154

>  <SOIL_ADSORPTION_COEFFICIENT_KOC_L/KG_OPERA_PRED>
2006.15

>  <OCTANOL_WATER_PARTITION_LOGP_OPERA_PRED>
2.62304

>  <MELTING_POINT_DEGC_OPERA_PRED>
1.51745

>  <VAPOR_PRESSURE_MMHG_OPERA_PRED>
1.89823

>  <WATER_SOLUBILITY_MOL/L_OPERA_PRED>
0.0108454

>  <Shape Index>
0.45455

>  <Molecular Flexibility>
0.31643

>  <Molecular Complexity>
0.62687

>  <Electronegative Atoms>
1

>  <Stereo Centers>
0

>  <Rotatable Bonds>
0

>  <Rings Closures>
2

>  <Aromatic Rings>
0

>  <Aromatic Atoms>
0

>  <Amides>
0

>  <Amines>
0

>  <Aromatic Nitrogens>
0

>  <Shape Index 2>
0.45455

>  <Molecular Flexibility 2>
0.31643

>  <Molecular Complexity 2>
0.62687

>  <Non-C/H Atoms>
1

>  <Electronegative Atoms 2>
1

>  <Stereo Centers 2>
0

>  <Rotatable Bonds 2>
0

>  <Rings Closures 2>
2

>  <Aromatic Rings 2>
0

>  <Aromatic Atoms 2>
0

>  <sp3-Atoms>
11

>  <Amides 2>
0

>  <Amines 2>
0

>  <Aromatic Nitrogens 2>
0

>  <Basic Nitrogens>
0

$$$$
cis-Heptachlor epoxide
Actelion Java MolfileCreator 2.0

  0  0  0  0  0  0              0 V3000
M  V30 BEGIN CTAB
M  V30 COUNTS 18 21 0 0 0
M  V30 BEGIN ATOM
M  V30 1 Cl 0.0 0.0 0.0 0
M  V30 2 C -1.2388 -0.6914 0.0 0
M  V30 3 C -1.3973 -2.0887 0.0 0
M  V30 4 C -2.5497 -0.1008 0.0 0
M  V30 5 Cl -0.3601 -3.025 0.0 0
M  V30 6 C -2.7946 -2.3624 0.0 0
M  V30 7 Cl -2.348 1.3108 0.0 0
M  V30 8 C -3.5148 -1.138 0.0 0
M  V30 9 C -4.3935 -0.1152 0.0 0
M  V30 10 Cl -2.8954 -3.7597 0.0 0
M  V30 11 C -4.5952 -1.9302 0.0 0
M  V30 12 Cl -4.9121 -0.3745 0.0 0
M  V30 13 Cl -5.0274 -1.5701 0.0 0
M  V30 14 C -5.8196 0.2736 0.0 0
M  V30 15 C -6.0645 -1.9879 0.0 0
M  V30 16 Cl -6.1222 1.671 0.0 0
M  V30 17 C -6.7848 -0.7634 0.0 0
M  V30 18 O -7.5051 -1.9735 0.0 0
M  V30 END ATOM
M  V30 BEGIN BOND
M  V30 1 1 1 2
M  V30 2 2 2 3
M  V30 3 1 2 4
M  V30 4 1 3 5
M  V30 5 1 3 6
M  V30 6 1 4 7
M  V30 7 1 4 8
M  V30 8 1 4 9
M  V30 9 1 6 10
M  V30 10 1 6 11
M  V30 11 1 8 12
M  V30 12 1 8 13
M  V30 13 1 9 14
M  V30 14 1 11 15
M  V30 15 1 14 16
M  V30 16 1 14 17
M  V30 17 1 15 18
M  V30 18 1 6 8
M  V30 19 1 9 11
M  V30 20 1 15 17
M  V30 21 1 17 18
M  V30 END BOND
M  V30 END CTAB
M  END
>  <Molecule Name>
cis-Heptachlor epoxide

>  <Order (spectra)>
159

>  <NAME>
cis-Heptachlor epoxide

>  <Molecular Formula>
C10H5OCl7

>  <Monoisotopic Mass>
385.816004

>  <SMILES>
C12C(C(C3C1O3)Cl)C4(C(=C(C2(C4(Cl)Cl)Cl)Cl)Cl)Cl

>  <InChI>
InChI=1S/C10H5Cl7O/c11-3-1-2(4-5(3)18-4)9(15)7(13)6(12)8(1,14)10(9,16)17/h1-5H

>  <InChIKey>
ZXFXBSWRVIQKOD-UHFFFAOYSA-N

>  <Kingdom>
Organic compounds

>  <Superclass>
Organoheterocyclic compounds

>  <Class>
Oxanes

>  <Subclass>


>  <Parent Level 1>
Oxanes

>  <Parent Level 2>


>  <Parent Level 3>


>  <cLogP>
4.2373

>  <cLogS>
-5.704

>  <Druglikeness>
-0.29619

>  <NP-class probability>
0.9

>  <SmilesFragFp 3>


>  <MS_READY_SMILES>
-

>  <MS_READY_InChI>


>  <QSAR_READY_SMILES>
-

>  <QSAR_READY_InChI>


>  <DTXSID>
-

>  <DTXCID>
-

>  <CASRN>
-

>  <EXPOCAST_MEDIAN_EXPOSURE_PREDICTION_MG/KG-BW/DAY>
-

>  <BIOCONCENTRATION_FACTOR_TEST_PRED>
-

>  <BOILING_POINT_DEGC_TEST_PRED>
-

>  <48HR_DAPHNIA_LC50_MOL/L_TEST_PRED>
-

>  <DENSITY_G/CM^3_TEST_PRED>
-

>  <DEVTOX_TEST_PRED>
-

>  <96HR_FATHEAD_MINNOW_MOL/L_TEST_PRED>
-

>  <FLASH_POINT_DEGC_TEST_PRED>
-

>  <MELTING_POINT_DEGC_TEST_PRED>
-

>  <AMES_MUTAGENICITY_TEST_PRED>
-

>  <ORAL_RAT_LD50_MOL/KG_TEST_PRED>
-

>  <SURFACE_TENSION_DYN/CM_TEST_PRED>
-

>  <THERMAL_CONDUCTIVITY_MW/(M*K)_TEST_PRED>
-

>  <TETRAHYMENA_PYRIFORMIS_IGC50_MOL/L_TEST_PRED>
-

>  <VISCOSITY_CP_CP_TEST_PRED>
-

>  <VAPOR_PRESSURE_MMHG_TEST_PRED>
-

>  <WATER_SOLUBILITY_MOL/L_TEST_PRED>
-

>  <ATMOSPHERIC_HYDROXYLATION_RATE_(AOH)_CM3/MOLECULE*SEC_OPERA_PRED>
-

>  <BIOCONCENTRATION_FACTOR_OPERA_PRED>
-

>  <BIODEGRADATION_HALF_LIFE_DAYS_DAYS_OPERA_PRED>
-

>  <BOILING_POINT_DEGC_OPERA_PRED>
-

>  <HENRYS_LAW_ATM-M3/MOLE_OPERA_PRED>
-

>  <OPERA_KM_DAYS_OPERA_PRED>
-

>  <OCTANOL_AIR_PARTITION_COEFF_LOGKOA_OPERA_PRED>
-

>  <SOIL_ADSORPTION_COEFFICIENT_KOC_L/KG_OPERA_PRED>
-

>  <OCTANOL_WATER_PARTITION_LOGP_OPERA_PRED>
-

>  <MELTING_POINT_DEGC_OPERA_PRED>
-

>  <VAPOR_PRESSURE_MMHG_OPERA_PRED>
-

>  <WATER_SOLUBILITY_MOL/L_OPERA_PRED>
-

>  <Shape Index>
0.38889

>  <Molecular Flexibility>
0

>  <Molecular Complexity>
1.0296

>  <Electronegative Atoms>
8

>  <Stereo Centers>
7

>  <Rotatable Bonds>
0

>  <Rings Closures>
4

>  <Aromatic Rings>
0

>  <Aromatic Atoms>
0

>  <Amides>
0

>  <Amines>
0

>  <Aromatic Nitrogens>
0

>  <Shape Index 2>
0.38889

>  <Molecular Flexibility 2>
0

>  <Molecular Complexity 2>
1.0296

>  <Non-C/H Atoms>
8

>  <Electronegative Atoms 2>
8

>  <Stereo Centers 2>
7

>  <Rotatable Bonds 2>
0

>  <Rings Closures 2>
4

>  <Aromatic Rings 2>
0

>  <Aromatic Atoms 2>
0

>  <sp3-Atoms>
9

>  <Amides 2>
0

>  <Amines 2>
0

>  <Aromatic Nitrogens 2>
0

>  <Basic Nitrogens>
0

$$$$
Perylene
Actelion Java MolfileCreator 2.0

  0  0  0  0  0  0              0 V3000
M  V30 BEGIN CTAB
M  V30 COUNTS 20 24 0 0 0
M  V30 BEGIN ATOM
M  V30 1 C 0.0 0.0 0.0 0
M  V30 2 C -0.0118 -1.494 0.0 0
M  V30 3 C 1.2924 0.7588 0.0 0
M  V30 4 C -1.3161 0.7588 0.0 0
M  V30 5 C 1.2805 -2.2291 0.0 0
M  V30 6 C -1.328 -2.2291 0.0 0
M  V30 7 C 2.5848 0.0237 0.0 0
M  V30 8 C 1.2805 2.2765 0.0 0
M  V30 9 C -2.6322 0.0237 0.0 0
M  V30 10 C -1.328 2.2765 0.0 0
M  V30 11 C 2.573 -1.4584 0.0 0
M  V30 12 C 1.2687 -3.7231 0.0 0
M  V30 13 C -2.6441 -1.4702 0.0 0
M  V30 14 C 3.8773 0.7825 0.0 0
M  V30 15 C -0.0355 3.0473 0.0 0
M  V30 16 C 3.8654 -2.1935 0.0 0
M  V30 17 C 2.5611 -4.4583 0.0 0
M  V30 18 C 5.1697 0.0474 0.0 0
M  V30 19 C 3.8535 -3.6875 0.0 0
M  V30 20 C 5.1578 -1.4347 0.0 0
M  V30 END ATOM
M  V30 BEGIN BOND
M  V30 1 1 1 2
M  V30 2 2 1 3
M  V30 3 1 1 4
M  V30 4 1 2 5
M  V30 5 2 2 6
M  V30 6 1 3 7
M  V30 7 1 3 8
M  V30 8 1 4 9
M  V30 9 2 4 10
M  V30 10 1 5 11
M  V30 11 2 5 12
M  V30 12 1 6 13
M  V30 13 1 7 14
M  V30 14 2 8 15
M  V30 15 1 11 16
M  V30 16 1 12 17
M  V30 17 2 14 18
M  V30 18 1 16 19
M  V30 19 2 16 20
M  V30 20 2 7 11
M  V30 21 2 9 13
M  V30 22 1 10 15
M  V30 23 2 17 19
M  V30 24 1 18 20
M  V30 END BOND
M  V30 END CTAB
M  END
>  <Molecule Name>
Perylene

>  <Order (spectra)>
2

>  <NAME>
Perylene

>  <Molecular Formula>
C20H12

>  <Monoisotopic Mass>
252.0939

>  <SMILES>
C1=CC2=C3C(=C1)C1=CC=CC4=C1C(=CC=C4)C3=CC=C2

>  <InChI>
InChI=1S/C20H12/c1-5-13-6-2-11-17-18-12-4-8-14-7-3-10-16(20(14)18)15(9-1)19(13)17/h1-12H

>  <InChIKey>
CSHWQDPOILHKBI-UHFFFAOYSA-N

>  <Kingdom>
Organic compounds

>  <Superclass>
Benzenoids

>  <Class>
Phenanthrenes and derivatives

>  <Subclass>


>  <Parent Level 1>
Phenanthrenes and derivatives

>  <Parent Level 2>


>  <Parent Level 3>


>  <cLogP>
5.7072

>  <cLogS>
-7.914

>  <Druglikeness>
-2.1841

>  <NP-class probability>
1

>  <SmilesFragFp 3>


>  <MS_READY_SMILES>
C1=CC2=C3C(=C1)C1=CC=CC4=C1C(=CC=C4)C3=CC=C2

>  <MS_READY_InChI>
InChI=1S/C20H12/c1-5-13-6-2-11-17-18-12-4-8-14-7-3-10-16(20(14)18)15(9-1)19(13)17/h1-12H

>  <QSAR_READY_SMILES>
C1=CC2=C3C(=C1)C1=CC=CC4=C1C(=CC=C4)C3=CC=C2

>  <QSAR_READY_InChI>
InChI=1S/C20H12/c1-5-13-6-2-11-17-18-12-4-8-14-7-3-10-16(20(14)18)15(9-1)19(13)17/h1-12H

>  <DTXSID>
DTXSID4047753

>  <DTXCID>
DTXCID9027736

>  <CASRN>
198-55-0

>  <EXPOCAST_MEDIAN_EXPOSURE_PREDICTION_MG/KG-BW/DAY>
1.82E-06

>  <BIOCONCENTRATION_FACTOR_TEST_PRED>
724.436

>  <BOILING_POINT_DEGC_TEST_PRED>
480.019

>  <48HR_DAPHNIA_LC50_MOL/L_TEST_PRED>
7.14E-07

>  <DENSITY_G/CM^3_TEST_PRED>
1.275

>  <DEVTOX_TEST_PRED>
0.355

>  <96HR_FATHEAD_MINNOW_MOL/L_TEST_PRED>
2.14E-07

>  <FLASH_POINT_DEGC_TEST_PRED>
230.615

>  <MELTING_POINT_DEGC_TEST_PRED>
207.823

>  <AMES_MUTAGENICITY_TEST_PRED>
1.037

>  <ORAL_RAT_LD50_MOL/KG_TEST_PRED>
-

>  <SURFACE_TENSION_DYN/CM_TEST_PRED>
44.403

>  <THERMAL_CONDUCTIVITY_MW/(M*K)_TEST_PRED>
-

>  <TETRAHYMENA_PYRIFORMIS_IGC50_MOL/L_TEST_PRED>
3.44E-06

>  <VISCOSITY_CP_CP_TEST_PRED>
-

>  <VAPOR_PRESSURE_MMHG_TEST_PRED>
4.49E-09

>  <WATER_SOLUBILITY_MOL/L_TEST_PRED>
7.74E-09

>  <ATMOSPHERIC_HYDROXYLATION_RATE_(AOH)_CM3/MOLECULE*SEC_OPERA_PRED>
3.45E-11

>  <BIOCONCENTRATION_FACTOR_OPERA_PRED>
910.302

>  <BIODEGRADATION_HALF_LIFE_DAYS_DAYS_OPERA_PRED>
895.527

>  <BOILING_POINT_DEGC_OPERA_PRED>
486.93

>  <HENRYS_LAW_ATM-M3/MOLE_OPERA_PRED>
1.06E-06

>  <OPERA_KM_DAYS_OPERA_PRED>
0.871916

>  <OCTANOL_AIR_PARTITION_COEFF_LOGKOA_OPERA_PRED>
10.3435

>  <SOIL_ADSORPTION_COEFFICIENT_KOC_L/KG_OPERA_PRED>
549080

>  <OCTANOL_WATER_PARTITION_LOGP_OPERA_PRED>
6.04911

>  <MELTING_POINT_DEGC_OPERA_PRED>
225.812

>  <VAPOR_PRESSURE_MMHG_OPERA_PRED>
5.24E-09

>  <WATER_SOLUBILITY_MOL/L_OPERA_PRED>
2.34E-09

>  <Shape Index>
0.4

>  <Molecular Flexibility>
0.021098

>  <Molecular Complexity>
0.8267

>  <Electronegative Atoms>
0

>  <Stereo Centers>
0

>  <Rotatable Bonds>
0

>  <Rings Closures>
5

>  <Aromatic Rings>
4

>  <Aromatic Atoms>
20

>  <Amides>
0

>  <Amines>
0

>  <Aromatic Nitrogens>
0

>  <Shape Index 2>
0.4

>  <Molecular Flexibility 2>
0.021098

>  <Molecular Complexity 2>
0.8267

>  <Non-C/H Atoms>
0

>  <Electronegative Atoms 2>
0

>  <Stereo Centers 2>
0

>  <Rotatable Bonds 2>
0

>  <Rings Closures 2>
5

>  <Aromatic Rings 2>
4

>  <Aromatic Atoms 2>
20

>  <sp3-Atoms>
0

>  <Amides 2>
0

>  <Amines 2>
0

>  <Aromatic Nitrogens 2>
0

>  <Basic Nitrogens>
0

$$$$
Phenanthrene
Actelion Java MolfileCreator 2.0

  0  0  0  0  0  0              0 V3000
M  V30 BEGIN CTAB
M  V30 COUNTS 14 16 0 0 0
M  V30 BEGIN ATOM
M  V30 1 C 0.0 0.0 0.0 0
M  V30 2 C -0.0118 -1.4929 0.0 0
M  V30 3 C 1.2915 0.7583 0.0 0
M  V30 4 C -1.3152 0.7583 0.0 0
M  V30 5 C 1.2797 -2.2276 0.0 0
M  V30 6 C -1.327 -2.2276 0.0 0
M  V30 7 C 2.5831 0.0236 0.0 0
M  V30 8 C 1.2797 2.275 0.0 0
M  V30 9 C -1.327 2.275 0.0 0
M  V30 10 C 2.5712 -1.4574 0.0 0
M  V30 11 C 1.2678 -3.7206 0.0 0
M  V30 12 C -1.3389 -3.7206 0.0 0
M  V30 13 C -0.0355 3.0333 0.0 0
M  V30 14 C -0.0473 -4.4552 0.0 0
M  V30 END ATOM
M  V30 BEGIN BOND
M  V30 1 2 1 2
M  V30 2 1 1 3
M  V30 3 1 1 4
M  V30 4 1 2 5
M  V30 5 1 2 6
M  V30 6 2 3 7
M  V30 7 1 3 8
M  V30 8 2 4 9
M  V30 9 2 5 10
M  V30 10 1 5 11
M  V30 11 2 6 12
M  V30 12 2 8 13
M  V30 13 2 11 14
M  V30 14 1 7 10
M  V30 15 1 9 13
M  V30 16 1 12 14
M  V30 END BOND
M  V30 END CTAB
M  END
>  <Molecule Name>
Phenanthrene

>  <Order (spectra)>
4

>  <NAME>
Phenanthrene

>  <Molecular Formula>
C14H10

>  <Monoisotopic Mass>
178.07825

>  <SMILES>
C1=CC2=C(C=C1)C1=C(C=CC=C1)C=C2

>  <InChI>
InChI=1S/C14H10/c1-3-7-13-11(5-1)9-10-12-6-2-4-8-14(12)13/h1-10H

>  <InChIKey>
YNPNZTXNASCQKK-UHFFFAOYSA-N

>  <Kingdom>
Organic compounds

>  <Superclass>
Benzenoids

>  <Class>
Phenanthrenes and derivatives

>  <Subclass>


>  <Parent Level 1>
Phenanthrenes and derivatives

>  <Parent Level 2>


>  <Parent Level 3>


>  <cLogP>
4.0484

>  <cLogS>
-4.828

>  <Druglikeness>
-2.3575

>  <NP-class probability>
1

>  <SmilesFragFp 3>


>  <MS_READY_SMILES>
C1=CC2=C(C=C1)C1=C(C=CC=C1)C=C2

>  <MS_READY_InChI>
InChI=1S/C14H10/c1-3-7-13-11(5-1)9-10-12-6-2-4-8-14(12)13/h1-10H

>  <QSAR_READY_SMILES>
C1=CC2=C(C=C1)C1=C(C=CC=C1)C=C2

>  <QSAR_READY_InChI>
InChI=1S/C14H10/c1-3-7-13-11(5-1)9-10-12-6-2-4-8-14(12)13/h1-10H

>  <DTXSID>
DTXSID6024254

>  <DTXCID>
DTXCID904254

>  <CASRN>
85-01-8

>  <EXPOCAST_MEDIAN_EXPOSURE_PREDICTION_MG/KG-BW/DAY>
8.35E-07

>  <BIOCONCENTRATION_FACTOR_TEST_PRED>
633.87

>  <BOILING_POINT_DEGC_TEST_PRED>
340.522

>  <48HR_DAPHNIA_LC50_MOL/L_TEST_PRED>
4.62E-06

>  <DENSITY_G/CM^3_TEST_PRED>
1.117

>  <DEVTOX_TEST_PRED>
0.651

>  <96HR_FATHEAD_MINNOW_MOL/L_TEST_PRED>
5.02E-06

>  <FLASH_POINT_DEGC_TEST_PRED>
150.039

>  <MELTING_POINT_DEGC_TEST_PRED>
96.962

>  <AMES_MUTAGENICITY_TEST_PRED>
0.629

>  <ORAL_RAT_LD50_MOL/KG_TEST_PRED>
0.00893306

>  <SURFACE_TENSION_DYN/CM_TEST_PRED>
39.414

>  <THERMAL_CONDUCTIVITY_MW/(M*K)_TEST_PRED>
126.54

>  <TETRAHYMENA_PYRIFORMIS_IGC50_MOL/L_TEST_PRED>
5.40E-05

>  <VISCOSITY_CP_CP_TEST_PRED>
7.44732

>  <VAPOR_PRESSURE_MMHG_TEST_PRED>
4.90E-05

>  <WATER_SOLUBILITY_MOL/L_TEST_PRED>
3.55E-06

>  <ATMOSPHERIC_HYDROXYLATION_RATE_(AOH)_CM3/MOLECULE*SEC_OPERA_PRED>
1.33E-11

>  <BIOCONCENTRATION_FACTOR_OPERA_PRED>
2486.86

>  <BIODEGRADATION_HALF_LIFE_DAYS_DAYS_OPERA_PRED>
42.3429

>  <BOILING_POINT_DEGC_OPERA_PRED>
339.957

>  <HENRYS_LAW_ATM-M3/MOLE_OPERA_PRED>
4.26E-05

>  <OPERA_KM_DAYS_OPERA_PRED>
5.0103

>  <OCTANOL_AIR_PARTITION_COEFF_LOGKOA_OPERA_PRED>
7.55002

>  <SOIL_ADSORPTION_COEFFICIENT_KOC_L/KG_OPERA_PRED>
22309.4

>  <OCTANOL_WATER_PARTITION_LOGP_OPERA_PRED>
4.46529

>  <MELTING_POINT_DEGC_OPERA_PRED>
156.882

>  <VAPOR_PRESSURE_MMHG_OPERA_PRED>
0.000111975

>  <WATER_SOLUBILITY_MOL/L_OPERA_PRED>
1.43E-06

>  <Shape Index>
0.57143

>  <Molecular Flexibility>
0

>  <Molecular Complexity>
0.5406

>  <Electronegative Atoms>
0

>  <Stereo Centers>
0

>  <Rotatable Bonds>
0

>  <Rings Closures>
3

>  <Aromatic Rings>
3

>  <Aromatic Atoms>
14

>  <Amides>
0

>  <Amines>
0

>  <Aromatic Nitrogens>
0

>  <Shape Index 2>
0.57143

>  <Molecular Flexibility 2>
0

>  <Molecular Complexity 2>
0.5406

>  <Non-C/H Atoms>
0

>  <Electronegative Atoms 2>
0

>  <Stereo Centers 2>
0

>  <Rotatable Bonds 2>
0

>  <Rings Closures 2>
3

>  <Aromatic Rings 2>
3

>  <Aromatic Atoms 2>
14

>  <sp3-Atoms>
0

>  <Amides 2>
0

>  <Amines 2>
0

>  <Aromatic Nitrogens 2>
0

>  <Basic Nitrogens>
0

$$$$
Benzo[ghi]fluoranthene
Actelion Java MolfileCreator 2.0

  0  0  0  0  0  0              0 V3000
M  V30 BEGIN CTAB
M  V30 COUNTS 18 22 0 0 0
M  V30 BEGIN ATOM
M  V30 1 C 0.0 0.0 0.0 0
M  V30 2 C 1.2762 -0.7292 0.0 0
M  V30 3 C -1.3005 -0.7292 0.0 0
M  V30 4 C 0.2187 1.5315 0.0 0
M  V30 5 C 1.2641 -2.2121 0.0 0
M  V30 6 C 2.6862 -0.2552 0.0 0
M  V30 7 C -1.3127 -2.2121 0.0 0
M  V30 8 C 1.5679 2.1514 0.0 0
M  V30 9 C -0.0364 -2.9414 0.0 0
M  V30 10 C 2.674 -2.6619 0.0 0
M  V30 11 C 2.7591 1.2884 0.0 0
M  V30 12 C 3.5492 -1.4464 0.0 0
M  V30 13 C 0.1823 -4.4486 0.0 0
M  V30 14 C 2.747 -4.1812 0.0 0
M  V30 15 C 4.2906 1.6044 0.0 0
M  V30 16 C 5.0199 -0.8751 0.0 0
M  V30 17 C 1.5315 -5.0442 0.0 0
M  V30 18 C 5.3603 0.5834 0.0 0
M  V30 END ATOM
M  V30 BEGIN BOND
M  V30 1 1 1 2
M  V30 2 1 1 3
M  V30 3 2 1 4
M  V30 4 1 2 5
M  V30 5 2 2 6
M  V30 6 2 3 7
M  V30 7 1 4 8
M  V30 8 1 5 9
M  V30 9 2 5 10
M  V30 10 1 6 11
M  V30 11 1 6 12
M  V30 12 2 9 13
M  V30 13 1 10 14
M  V30 14 1 11 15
M  V30 15 2 12 16
M  V30 16 1 13 17
M  V30 17 2 15 18
M  V30 18 1 7 9
M  V30 19 2 8 11
M  V30 20 1 10 12
M  V30 21 2 14 17
M  V30 22 1 16 18
M  V30 END BOND
M  V30 END CTAB
M  END
>  <Molecule Name>
Benzo[ghi]fluoranthene

>  <Order (spectra)>
14

>  <NAME>
Benzo[ghi]fluoranthene

>  <Molecular Formula>
C18H10

>  <Monoisotopic Mass>
226.07825

>  <SMILES>
C1=CC2=CC=C3C=CC4=CC=CC5=C4C3=C2C5=C1

>  <InChI>
InChI=1S/C18H10/c1-3-11-7-9-13-10-8-12-4-2-6-15-14(5-1)16(11)18(13)17(12)15/h1-10H

>  <InChIKey>
YEIHPPOCKIHUQJ-UHFFFAOYSA-N

>  <Kingdom>
Organic compounds

>  <Superclass>
Benzenoids

>  <Class>
Phenanthrenes and derivatives

>  <Subclass>


>  <Parent Level 1>
Phenanthrenes and derivatives

>  <Parent Level 2>


>  <Parent Level 3>


>  <cLogP>
5.2424

>  <cLogS>
-7.434

>  <Druglikeness>
-2.1841

>  <NP-class probability>
0.97

>  <SmilesFragFp 3>


>  <MS_READY_SMILES>
C1=CC2=CC=C3C=CC4=CC=CC5=C4C3=C2C5=C1

>  <MS_READY_InChI>
InChI=1S/C18H10/c1-3-11-7-9-13-10-8-12-4-2-6-15-14(5-1)16(11)18(13)17(12)15/h1-10H

>  <QSAR_READY_SMILES>
C1=CC2=CC=C3C=CC4=CC=CC5=C4C3=C2C5=C1

>  <QSAR_READY_InChI>
InChI=1S/C18H10/c1-3-11-7-9-13-10-8-12-4-2-6-15-14(5-1)16(11)18(13)17(12)15/h1-10H

>  <DTXSID>
DTXSID4075455

>  <DTXCID>
DTXCID1036254

>  <CASRN>
203-12-3

>  <EXPOCAST_MEDIAN_EXPOSURE_PREDICTION_MG/KG-BW/DAY>
1.06E-06

>  <BIOCONCENTRATION_FACTOR_TEST_PRED>
690.24

>  <BOILING_POINT_DEGC_TEST_PRED>
424.668

>  <48HR_DAPHNIA_LC50_MOL/L_TEST_PRED>
1.11E-06

>  <DENSITY_G/CM^3_TEST_PRED>
1.298

>  <DEVTOX_TEST_PRED>
0.517

>  <96HR_FATHEAD_MINNOW_MOL/L_TEST_PRED>
3.63E-07

>  <FLASH_POINT_DEGC_TEST_PRED>
182.784

>  <MELTING_POINT_DEGC_TEST_PRED>
185.3

>  <AMES_MUTAGENICITY_TEST_PRED>
1.003

>  <ORAL_RAT_LD50_MOL/KG_TEST_PRED>
-

>  <SURFACE_TENSION_DYN/CM_TEST_PRED>
-

>  <THERMAL_CONDUCTIVITY_MW/(M*K)_TEST_PRED>
-

>  <TETRAHYMENA_PYRIFORMIS_IGC50_MOL/L_TEST_PRED>
6.15E-06

>  <VISCOSITY_CP_CP_TEST_PRED>
-

>  <VAPOR_PRESSURE_MMHG_TEST_PRED>
2.00E-08

>  <WATER_SOLUBILITY_MOL/L_TEST_PRED>
8.09E-08

>  <ATMOSPHERIC_HYDROXYLATION_RATE_(AOH)_CM3/MOLECULE*SEC_OPERA_PRED>
2.78E-11

>  <BIOCONCENTRATION_FACTOR_OPERA_PRED>
1418.29

>  <BIODEGRADATION_HALF_LIFE_DAYS_DAYS_OPERA_PRED>
350.184

>  <BOILING_POINT_DEGC_OPERA_PRED>
435.92

>  <HENRYS_LAW_ATM-M3/MOLE_OPERA_PRED>
5.33E-06

>  <OPERA_KM_DAYS_OPERA_PRED>
2.17305

>  <OCTANOL_AIR_PARTITION_COEFF_LOGKOA_OPERA_PRED>
9.92031

>  <SOIL_ADSORPTION_COEFFICIENT_KOC_L/KG_OPERA_PRED>
281574

>  <OCTANOL_WATER_PARTITION_LOGP_OPERA_PRED>
5.70337

>  <MELTING_POINT_DEGC_OPERA_PRED>
185.396

>  <VAPOR_PRESSURE_MMHG_OPERA_PRED>
2.15E-08

>  <WATER_SOLUBILITY_MOL/L_OPERA_PRED>
1.48E-08

>  <Shape Index>
0.38889

>  <Molecular Flexibility>
0

>  <Molecular Complexity>
0.84166

>  <Electronegative Atoms>
0

>  <Stereo Centers>
0

>  <Rotatable Bonds>
0

>  <Rings Closures>
5

>  <Aromatic Rings>
4

>  <Aromatic Atoms>
18

>  <Amides>
0

>  <Amines>
0

>  <Aromatic Nitrogens>
0

>  <Shape Index 2>
0.38889

>  <Molecular Flexibility 2>
0

>  <Molecular Complexity 2>
0.84166

>  <Non-C/H Atoms>
0

>  <Electronegative Atoms 2>
0

>  <Stereo Centers 2>
0

>  <Rotatable Bonds 2>
0

>  <Rings Closures 2>
5

>  <Aromatic Rings 2>
4

>  <Aromatic Atoms 2>
18

>  <sp3-Atoms>
0

>  <Amides 2>
0

>  <Amines 2>
0

>  <Aromatic Nitrogens 2>
0

>  <Basic Nitrogens>
0

$$$$
Triphenylene
Actelion Java MolfileCreator 2.0

  0  0  0  0  0  0              0 V3000
M  V30 BEGIN CTAB
M  V30 COUNTS 18 21 0 0 0
M  V30 BEGIN ATOM
M  V30 1 C 0.0 0.0 0.0 0
M  V30 2 C -0.0118 -1.4943 0.0 0
M  V30 3 C 1.2926 0.759 0.0 0
M  V30 4 C -1.3164 0.759 0.0 0
M  V30 5 C 1.2808 -2.2296 0.0 0
M  V30 6 C -1.3282 -2.2296 0.0 0
M  V30 7 C 2.5853 0.0237 0.0 0
M  V30 8 C 1.2808 2.277 0.0 0
M  V30 9 C -2.6328 0.0237 0.0 0
M  V30 10 C 2.5735 -1.4705 0.0 0
M  V30 11 C 1.2689 -3.7239 0.0 0
M  V30 12 C -2.6446 -1.4587 0.0 0
M  V30 13 C 3.878 0.7827 0.0 0
M  V30 14 C 2.5735 3.0479 0.0 0
M  V30 15 C 3.8662 -2.2058 0.0 0
M  V30 16 C 2.5616 -4.4592 0.0 0
M  V30 17 C 3.8662 2.3007 0.0 0
M  V30 18 C 3.8543 -3.7001 0.0 0
M  V30 END ATOM
M  V30 BEGIN BOND
M  V30 1 1 1 2
M  V30 2 2 1 3
M  V30 3 1 1 4
M  V30 4 2 2 5
M  V30 5 1 2 6
M  V30 6 1 3 7
M  V30 7 1 3 8
M  V30 8 2 4 9
M  V30 9 1 5 10
M  V30 10 1 5 11
M  V30 11 2 6 12
M  V30 12 1 7 13
M  V30 13 2 8 14
M  V30 14 1 10 15
M  V30 15 2 11 16
M  V30 16 2 13 17
M  V30 17 2 15 18
M  V30 18 2 7 10
M  V30 19 1 9 12
M  V30 20 1 14 17
M  V30 21 1 16 18
M  V30 END BOND
M  V30 END CTAB
M  END
>  <Molecule Name>
Triphenylene

>  <Order (spectra)>
15

>  <NAME>
Triphenylene

>  <Molecular Formula>
C18H12

>  <Monoisotopic Mass>
228.0939

>  <SMILES>
C1=CC=C2C(=C1)C1=CC=CC=C1C1=CC=CC=C21

>  <InChI>
InChI=1S/C18H12/c1-2-8-14-13(7-1)15-9-3-4-11-17(15)18-12-6-5-10-16(14)18/h1-12H

>  <InChIKey>
SLGBZMMZGDRARJ-UHFFFAOYSA-N

>  <Kingdom>
Organic compounds

>  <Superclass>
Benzenoids

>  <Class>
Phenanthrenes and derivatives

>  <Subclass>
Triphenylenes

>  <Parent Level 1>
Triphenylenes

>  <Parent Level 2>


>  <Parent Level 3>


>  <cLogP>
5.2428

>  <cLogS>
-6.434

>  <Druglikeness>
-2.3575

>  <NP-class probability>
1

>  <SmilesFragFp 3>


>  <MS_READY_SMILES>
C1=CC=C2C(=C1)C1=CC=CC=C1C1=CC=CC=C21

>  <MS_READY_InChI>
InChI=1S/C18H12/c1-2-8-14-13(7-1)15-9-3-4-11-17(15)18-12-6-5-10-16(14)18/h1-12H

>  <QSAR_READY_SMILES>
C1=CC=C2C(=C1)C1=CC=CC=C1C1=CC=CC=C21

>  <QSAR_READY_InChI>
InChI=1S/C18H12/c1-2-8-14-13(7-1)15-9-3-4-11-17(15)18-12-6-5-10-16(14)18/h1-12H

>  <DTXSID>
DTXSID9059757

>  <DTXCID>
DTXCID7036537

>  <CASRN>
217-59-4

>  <EXPOCAST_MEDIAN_EXPOSURE_PREDICTION_MG/KG-BW/DAY>
1.75E-06

>  <BIOCONCENTRATION_FACTOR_TEST_PRED>
613.762

>  <BOILING_POINT_DEGC_TEST_PRED>
456.479

>  <48HR_DAPHNIA_LC50_MOL/L_TEST_PRED>
1.21E-06

>  <DENSITY_G/CM^3_TEST_PRED>
1.178

>  <DEVTOX_TEST_PRED>
0.561

>  <96HR_FATHEAD_MINNOW_MOL/L_TEST_PRED>
5.53E-07

>  <FLASH_POINT_DEGC_TEST_PRED>
193.751

>  <MELTING_POINT_DEGC_TEST_PRED>
212.935

>  <AMES_MUTAGENICITY_TEST_PRED>
0.907

>  <ORAL_RAT_LD50_MOL/KG_TEST_PRED>
0.00781628

>  <SURFACE_TENSION_DYN/CM_TEST_PRED>
41.554

>  <THERMAL_CONDUCTIVITY_MW/(M*K)_TEST_PRED>
125.047

>  <TETRAHYMENA_PYRIFORMIS_IGC50_MOL/L_TEST_PRED>
1.32E-05

>  <VISCOSITY_CP_CP_TEST_PRED>
-

>  <VAPOR_PRESSURE_MMHG_TEST_PRED>
4.50E-08

>  <WATER_SOLUBILITY_MOL/L_TEST_PRED>
7.10E-08

>  <ATMOSPHERIC_HYDROXYLATION_RATE_(AOH)_CM3/MOLECULE*SEC_OPERA_PRED>
2.78E-11

>  <BIOCONCENTRATION_FACTOR_OPERA_PRED>
457.261

>  <BIODEGRADATION_HALF_LIFE_DAYS_DAYS_OPERA_PRED>
377.334

>  <BOILING_POINT_DEGC_OPERA_PRED>
436.862

>  <HENRYS_LAW_ATM-M3/MOLE_OPERA_PRED>
6.52E-06

>  <OPERA_KM_DAYS_OPERA_PRED>
0.833494

>  <OCTANOL_AIR_PARTITION_COEFF_LOGKOA_OPERA_PRED>
9.37103

>  <SOIL_ADSORPTION_COEFFICIENT_KOC_L/KG_OPERA_PRED>
114135

>  <OCTANOL_WATER_PARTITION_LOGP_OPERA_PRED>
5.49211

>  <MELTING_POINT_DEGC_OPERA_PRED>
220.498

>  <VAPOR_PRESSURE_MMHG_OPERA_PRED>
2.10E-08

>  <WATER_SOLUBILITY_MOL/L_OPERA_PRED>
1.47E-07

>  <Shape Index>
0.44444

>  <Molecular Flexibility>
0

>  <Molecular Complexity>
0.67908

>  <Electronegative Atoms>
0

>  <Stereo Centers>
0

>  <Rotatable Bonds>
0

>  <Rings Closures>
4

>  <Aromatic Rings>
4

>  <Aromatic Atoms>
18

>  <Amides>
0

>  <Amines>
0

>  <Aromatic Nitrogens>
0

>  <Shape Index 2>
0.44444

>  <Molecular Flexibility 2>
0

>  <Molecular Complexity 2>
0.67908

>  <Non-C/H Atoms>
0

>  <Electronegative Atoms 2>
0

>  <Stereo Centers 2>
0

>  <Rotatable Bonds 2>
0

>  <Rings Closures 2>
4

>  <Aromatic Rings 2>
4

>  <Aromatic Atoms 2>
18

>  <sp3-Atoms>
0

>  <Amides 2>
0

>  <Amines 2>
0

>  <Aromatic Nitrogens 2>
0

>  <Basic Nitrogens>
0

$$$$
Benzanthracene/Benzophenanthrene
Actelion Java MolfileCreator 2.0

  0  0  0  0  0  0              0 V3000
M  V30 BEGIN CTAB
M  V30 COUNTS 18 21 0 0 0
M  V30 BEGIN ATOM
M  V30 1 C 0.0 0.0 0.0 0
M  V30 2 C -0.0118 -1.4905 0.0 0
M  V30 3 C 1.2894 0.7571 0.0 0
M  V30 4 C -1.3131 0.7571 0.0 0
M  V30 5 C -1.3249 -2.2239 0.0 0
M  V30 6 C 1.2776 -2.2239 0.0 0
M  V30 7 C 2.5788 0.0236 0.0 0
M  V30 8 C 1.2776 2.2713 0.0 0
M  V30 9 C -2.6262 0.0236 0.0 0
M  V30 10 C -2.638 -1.455 0.0 0
M  V30 11 C -1.3367 -3.7145 0.0 0
M  V30 12 C 2.567 -1.4668 0.0 0
M  V30 13 C 3.8683 0.7807 0.0 0
M  V30 14 C 2.567 3.0402 0.0 0
M  V30 15 C -3.9511 -2.2003 0.0 0
M  V30 16 C -2.6498 -4.4598 0.0 0
M  V30 17 C 3.8565 2.2949 0.0 0
M  V30 18 C -3.9629 -3.6908 0.0 0
M  V30 END ATOM
M  V30 BEGIN BOND
M  V30 1 1 1 2
M  V30 2 2 1 3
M  V30 3 1 1 4
M  V30 4 1 2 5
M  V30 5 2 2 6
M  V30 6 1 3 7
M  V30 7 1 3 8
M  V30 8 2 4 9
M  V30 9 1 5 10
M  V30 10 2 5 11
M  V30 11 1 6 12
M  V30 12 1 7 13
M  V30 13 2 8 14
M  V30 14 2 10 15
M  V30 15 1 11 16
M  V30 16 2 13 17
M  V30 17 1 15 18
M  V30 18 2 7 12
M  V30 19 1 9 10
M  V30 20 1 14 17
M  V30 21 2 16 18
M  V30 END BOND
M  V30 END CTAB
M  END
>  <Molecule Name>
Benzanthracene/Benzophenanthrene

>  <Order (spectra)>
16

>  <NAME>
Benzanthracene/Benzophenanthrene

>  <Molecular Formula>
C18H12

>  <Monoisotopic Mass>
228.0939

>  <SMILES>
C1=CC2=C(C=C1)C1=C(C=C2)C2=C(C=CC=C2)C=C1

>  <InChI>
InChI=1S/C18H12/c1-3-7-15-13(5-1)9-11-18-16-8-4-2-6-14(16)10-12-17(15)18/h1-12H

>  <InChIKey>
WDECIBYCCFPHNR-UHFFFAOYSA-N

>  <Kingdom>
Organic compounds

>  <Superclass>
Benzenoids

>  <Class>
Phenanthrenes and derivatives

>  <Subclass>
Chrysenes

>  <Parent Level 1>
Chrysenes

>  <Parent Level 2>


>  <Parent Level 3>


>  <cLogP>
5.2428

>  <cLogS>
-6.434

>  <Druglikeness>
-2.3575

>  <NP-class probability>
1

>  <SmilesFragFp 3>


>  <MS_READY_SMILES>
C1=CC2=C(C=C1)C1=C(C=C2)C2=C(C=CC=C2)C=C1

>  <MS_READY_InChI>
InChI=1S/C18H12/c1-3-7-15-13(5-1)9-11-18-16-8-4-2-6-14(16)10-12-17(15)18/h1-12H

>  <QSAR_READY_SMILES>
C1=CC2=C(C=C1)C1=C(C=C2)C2=C(C=CC=C2)C=C1

>  <QSAR_READY_InChI>
InChI=1S/C18H12/c1-3-7-15-13(5-1)9-11-18-16-8-4-2-6-14(16)10-12-17(15)18/h1-12H

>  <DTXSID>
DTXSID0022432

>  <DTXCID>
DTXCID702432

>  <CASRN>
218-01-9

>  <EXPOCAST_MEDIAN_EXPOSURE_PREDICTION_MG/KG-BW/DAY>
2.18E-07

>  <BIOCONCENTRATION_FACTOR_TEST_PRED>
557.186

>  <BOILING_POINT_DEGC_TEST_PRED>
451.445

>  <48HR_DAPHNIA_LC50_MOL/L_TEST_PRED>
1.06E-06

>  <DENSITY_G/CM^3_TEST_PRED>
1.188

>  <DEVTOX_TEST_PRED>
0.635

>  <96HR_FATHEAD_MINNOW_MOL/L_TEST_PRED>
5.22E-07

>  <FLASH_POINT_DEGC_TEST_PRED>
209.067

>  <MELTING_POINT_DEGC_TEST_PRED>
171.294

>  <AMES_MUTAGENICITY_TEST_PRED>
1.044

>  <ORAL_RAT_LD50_MOL/KG_TEST_PRED>
0.00874984

>  <SURFACE_TENSION_DYN/CM_TEST_PRED>
41.365

>  <THERMAL_CONDUCTIVITY_MW/(M*K)_TEST_PRED>
127.126

>  <TETRAHYMENA_PYRIFORMIS_IGC50_MOL/L_TEST_PRED>
1.08E-05

>  <VISCOSITY_CP_CP_TEST_PRED>
-

>  <VAPOR_PRESSURE_MMHG_TEST_PRED>
1.12E-08

>  <WATER_SOLUBILITY_MOL/L_TEST_PRED>
5.18E-08

>  <ATMOSPHERIC_HYDROXYLATION_RATE_(AOH)_CM3/MOLECULE*SEC_OPERA_PRED>
2.81E-11

>  <BIOCONCENTRATION_FACTOR_OPERA_PRED>
420.28

>  <BIODEGRADATION_HALF_LIFE_DAYS_DAYS_OPERA_PRED>
377.401

>  <BOILING_POINT_DEGC_OPERA_PRED>
436.862

>  <HENRYS_LAW_ATM-M3/MOLE_OPERA_PRED>
5.29E-06

>  <OPERA_KM_DAYS_OPERA_PRED>
3.85787

>  <OCTANOL_AIR_PARTITION_COEFF_LOGKOA_OPERA_PRED>
9.37103

>  <SOIL_ADSORPTION_COEFFICIENT_KOC_L/KG_OPERA_PRED>
204192

>  <OCTANOL_WATER_PARTITION_LOGP_OPERA_PRED>
5.80864

>  <MELTING_POINT_DEGC_OPERA_PRED>
220.498

>  <VAPOR_PRESSURE_MMHG_OPERA_PRED>
6.67E-09

>  <WATER_SOLUBILITY_MOL/L_OPERA_PRED>
1.38E-08

>  <Shape Index>
0.55556

>  <Molecular Flexibility>
0

>  <Molecular Complexity>
0.64123

>  <Electronegative Atoms>
0

>  <Stereo Centers>
0

>  <Rotatable Bonds>
0

>  <Rings Closures>
4

>  <Aromatic Rings>
4

>  <Aromatic Atoms>
18

>  <Amides>
0

>  <Amines>
0

>  <Aromatic Nitrogens>
0

>  <Shape Index 2>
0.55556

>  <Molecular Flexibility 2>
0

>  <Molecular Complexity 2>
0.64123

>  <Non-C/H Atoms>
0

>  <Electronegative Atoms 2>
0

>  <Stereo Centers 2>
0

>  <Rotatable Bonds 2>
0

>  <Rings Closures 2>
4

>  <Aromatic Rings 2>
4

>  <Aromatic Atoms 2>
18

>  <sp3-Atoms>
0

>  <Amides 2>
0

>  <Amines 2>
0

>  <Aromatic Nitrogens 2>
0

>  <Basic Nitrogens>
0

$$$$
Benzofluoranthene
Actelion Java MolfileCreator 2.0

  0  0  0  0  0  0              0 V3000
M  V30 BEGIN CTAB
M  V30 COUNTS 20 24 0 0 0
M  V30 BEGIN ATOM
M  V30 1 C 0.0 0.0 0.0 0
M  V30 2 C 1.2905 0.767 0.0 0
M  V30 3 C -0.0121 -1.4853 0.0 0
M  V30 4 C -1.3148 0.767 0.0 0
M  V30 5 C 2.581 0.0243 0.0 0
M  V30 6 C 1.5096 2.3132 0.0 0
M  V30 7 C 1.2783 -2.2279 0.0 0
M  V30 8 C -1.327 -2.2279 0.0 0
M  V30 9 C -2.6297 0.0243 0.0 0
M  V30 10 C 2.5688 -1.4609 0.0 0
M  V30 11 C 3.9933 0.4991 0.0 0
M  V30 12 C 2.8732 2.9341 0.0 0
M  V30 13 C -2.6419 -1.4609 0.0 0
M  V30 14 C 3.9811 -1.9114 0.0 0
M  V30 15 C 4.8577 -0.7061 0.0 0
M  V30 16 C 4.0664 2.0575 0.0 0
M  V30 17 C 4.5777 -3.275 0.0 0
M  V30 18 C 6.343 -0.8522 0.0 0
M  V30 19 C 6.063 -3.4211 0.0 0
M  V30 20 C 6.9396 -2.2158 0.0 0
M  V30 END ATOM
M  V30 BEGIN BOND
M  V30 1 2 1 2
M  V30 2 1 1 3
M  V30 3 1 1 4
M  V30 4 1 2 5
M  V30 5 1 2 6
M  V30 6 2 3 7
M  V30 7 1 3 8
M  V30 8 2 4 9
M  V30 9 2 5 10
M  V30 10 1 5 11
M  V30 11 2 6 12
M  V30 12 2 8 13
M  V30 13 1 10 14
M  V30 14 1 11 15
M  V30 15 2 11 16
M  V30 16 1 14 17
M  V30 17 1 15 18
M  V30 18 2 17 19
M  V30 19 2 18 20
M  V30 20 1 7 10
M  V30 21 1 9 13
M  V30 22 1 12 16
M  V30 23 2 14 15
M  V30 24 1 19 20
M  V30 END BOND
M  V30 END CTAB
M  END
>  <Molecule Name>
Benzofluoranthene

>  <Order (spectra)>
17

>  <NAME>
Benzofluoranthene

>  <Molecular Formula>
C20H12

>  <Monoisotopic Mass>
252.0939

>  <SMILES>
C1=CC=C2C(=C1)C1=CC=CC3=C4C=CC=CC4=CC2=C13

>  <InChI>
InChI=1S/C20H12/c1-2-7-14-13(6-1)12-19-16-9-4-3-8-15(16)18-11-5-10-17(14)20(18)19/h1-12H

>  <InChIKey>
FTOVXSOBNPWTSH-UHFFFAOYSA-N

>  <Kingdom>
Organic compounds

>  <Superclass>
Benzenoids

>  <Class>
Phenanthrenes and derivatives

>  <Subclass>


>  <Parent Level 1>
Phenanthrenes and derivatives

>  <Parent Level 2>


>  <Parent Level 3>


>  <cLogP>
5.7072

>  <cLogS>
-7.914

>  <Druglikeness>
-2.1841

>  <NP-class probability>
1

>  <SmilesFragFp 3>


>  <MS_READY_SMILES>
C1=CC=C2C(=C1)C1=CC=CC3=C4C=CC=CC4=CC2=C13

>  <MS_READY_InChI>
InChI=1S/C20H12/c1-2-7-14-13(6-1)12-19-16-9-4-3-8-15(16)18-11-5-10-17(14)20(18)19/h1-12H

>  <QSAR_READY_SMILES>
C1=CC=C2C(=C1)C1=CC=CC3=C4C=CC=CC4=CC2=C13

>  <QSAR_READY_InChI>
InChI=1S/C20H12/c1-2-7-14-13(6-1)12-19-16-9-4-3-8-15(16)18-11-5-10-17(14)20(18)19/h1-12H

>  <DTXSID>
DTXSID0023907

>  <DTXCID>
DTXCID903907

>  <CASRN>
205-99-2

>  <EXPOCAST_MEDIAN_EXPOSURE_PREDICTION_MG/KG-BW/DAY>
2.43E-06

>  <BIOCONCENTRATION_FACTOR_TEST_PRED>
605.341

>  <BOILING_POINT_DEGC_TEST_PRED>
482.015

>  <48HR_DAPHNIA_LC50_MOL/L_TEST_PRED>
6.03E-07

>  <DENSITY_G/CM^3_TEST_PRED>
1.277

>  <DEVTOX_TEST_PRED>
0.501

>  <96HR_FATHEAD_MINNOW_MOL/L_TEST_PRED>
1.93E-07

>  <FLASH_POINT_DEGC_TEST_PRED>
205.439

>  <MELTING_POINT_DEGC_TEST_PRED>
196.409

>  <AMES_MUTAGENICITY_TEST_PRED>
1.038

>  <ORAL_RAT_LD50_MOL/KG_TEST_PRED>
-

>  <SURFACE_TENSION_DYN/CM_TEST_PRED>
43.361

>  <THERMAL_CONDUCTIVITY_MW/(M*K)_TEST_PRED>
-

>  <TETRAHYMENA_PYRIFORMIS_IGC50_MOL/L_TEST_PRED>
3.44E-06

>  <VISCOSITY_CP_CP_TEST_PRED>
-

>  <VAPOR_PRESSURE_MMHG_TEST_PRED>
1.08E-08

>  <WATER_SOLUBILITY_MOL/L_TEST_PRED>
8.95E-09

>  <ATMOSPHERIC_HYDROXYLATION_RATE_(AOH)_CM3/MOLECULE*SEC_OPERA_PRED>
1.07E-10

>  <BIOCONCENTRATION_FACTOR_OPERA_PRED>
748.588

>  <BIODEGRADATION_HALF_LIFE_DAYS_DAYS_OPERA_PRED>
172.545

>  <BOILING_POINT_DEGC_OPERA_PRED>
344.844

>  <HENRYS_LAW_ATM-M3/MOLE_OPERA_PRED>
1.61E-05

>  <OPERA_KM_DAYS_OPERA_PRED>
1.03196

>  <OCTANOL_AIR_PARTITION_COEFF_LOGKOA_OPERA_PRED>
8.63832

>  <SOIL_ADSORPTION_COEFFICIENT_KOC_L/KG_OPERA_PRED>
418669

>  <OCTANOL_WATER_PARTITION_LOGP_OPERA_PRED>
5.77942

>  <MELTING_POINT_DEGC_OPERA_PRED>
168.208

>  <VAPOR_PRESSURE_MMHG_OPERA_PRED>
4.93E-07

>  <WATER_SOLUBILITY_MOL/L_OPERA_PRED>
8.42E-09

>  <Shape Index>
0.45

>  <Molecular Flexibility>
0

>  <Molecular Complexity>
0.86221

>  <Electronegative Atoms>
0

>  <Stereo Centers>
0

>  <Rotatable Bonds>
0

>  <Rings Closures>
5

>  <Aromatic Rings>
4

>  <Aromatic Atoms>
20

>  <Amides>
0

>  <Amines>
0

>  <Aromatic Nitrogens>
0

>  <Shape Index 2>
0.45

>  <Molecular Flexibility 2>
0

>  <Molecular Complexity 2>
0.86221

>  <Non-C/H Atoms>
0

>  <Electronegative Atoms 2>
0

>  <Stereo Centers 2>
0

>  <Rotatable Bonds 2>
0

>  <Rings Closures 2>
5

>  <Aromatic Rings 2>
4

>  <Aromatic Atoms 2>
20

>  <sp3-Atoms>
0

>  <Amides 2>
0

>  <Amines 2>
0

>  <Aromatic Nitrogens 2>
0

>  <Basic Nitrogens>
0

$$$$
Dibenzanthracene
Actelion Java MolfileCreator 2.0

  0  0  0  0  0  0              0 V3000
M  V30 BEGIN CTAB
M  V30 COUNTS 22 26 0 0 0
M  V30 BEGIN ATOM
M  V30 1 C 0.0 0.0 0.0 0
M  V30 2 C -0.0118 -1.4886 0.0 0
M  V30 3 C 1.2877 0.7561 0.0 0
M  V30 4 C -1.3113 0.7561 0.0 0
M  V30 5 C 1.2759 -2.221 0.0 0
M  V30 6 C -1.3232 -2.221 0.0 0
M  V30 7 C 1.2759 2.2683 0.0 0
M  V30 8 C 2.5755 0.0236 0.0 0
M  V30 9 C -1.3232 2.2683 0.0 0
M  V30 10 C 2.5637 -1.4531 0.0 0
M  V30 11 C 1.2641 -3.7097 0.0 0
M  V30 12 C -1.335 -3.7097 0.0 0
M  V30 13 C -0.0354 3.0244 0.0 0
M  V30 14 C -2.6345 3.0244 0.0 0
M  V30 15 C -0.0472 -4.4421 0.0 0
M  V30 16 C -0.0472 4.5367 0.0 0
M  V30 17 C -2.6464 4.5367 0.0 0
M  V30 18 C -1.3586 5.2928 0.0 0
M  V30 19 C 1.2405 5.2928 0.0 0
M  V30 20 C -1.3704 6.805 0.0 0
M  V30 21 C 1.2286 6.805 0.0 0
M  V30 22 C -0.0827 7.5611 0.0 0
M  V30 END ATOM
M  V30 BEGIN BOND
M  V30 1 2 1 2
M  V30 2 1 1 3
M  V30 3 1 1 4
M  V30 4 1 2 5
M  V30 5 1 2 6
M  V30 6 1 3 7
M  V30 7 2 3 8
M  V30 8 2 4 9
M  V30 9 2 5 10
M  V30 10 1 5 11
M  V30 11 2 6 12
M  V30 12 2 7 13
M  V30 13 1 9 14
M  V30 14 2 11 15
M  V30 15 1 13 16
M  V30 16 2 14 17
M  V30 17 1 16 18
M  V30 18 2 16 19
M  V30 19 2 18 20
M  V30 20 1 19 21
M  V30 21 1 20 22
M  V30 22 1 8 10
M  V30 23 1 9 13
M  V30 24 1 12 15
M  V30 25 1 17 18
M  V30 26 2 21 22
M  V30 END BOND
M  V30 END CTAB
M  END
>  <Molecule Name>
Dibenzanthracene

>  <Order (spectra)>
24

>  <NAME>
Dibenzanthracene

>  <Molecular Formula>
C22H14

>  <Monoisotopic Mass>
278.10955

>  <SMILES>
C1=CC2=CC=C3C=C4C(C=CC5=CC=CC=C45)=CC3=C2C=C1

>  <InChI>
InChI=1S/C22H14/c1-3-7-19-15(5-1)9-11-17-14-22-18(13-21(17)19)12-10-16-6-2-4-8-20(16)22/h1-14H

>  <InChIKey>
LHRCREOYAASXPZ-UHFFFAOYSA-N

>  <Kingdom>
Organic compounds

>  <Superclass>
Benzenoids

>  <Class>
Phenanthrenes and derivatives

>  <Subclass>


>  <Parent Level 1>
Phenanthrenes and derivatives

>  <Parent Level 2>


>  <Parent Level 3>


>  <cLogP>
6.4372

>  <cLogS>
-8.04

>  <Druglikeness>
-2.3575

>  <NP-class probability>
1

>  <SmilesFragFp 3>


>  <MS_READY_SMILES>
C1=CC2=CC=C3C=C4C(C=CC5=CC=CC=C45)=CC3=C2C=C1

>  <MS_READY_InChI>
InChI=1S/C22H14/c1-3-7-19-15(5-1)9-11-17-14-22-18(13-21(17)19)12-10-16-6-2-4-8-20(16)22/h1-14H

>  <QSAR_READY_SMILES>
C1=CC2=CC=C3C=C4C(C=CC5=CC=CC=C45)=CC3=C2C=C1

>  <QSAR_READY_InChI>
InChI=1S/C22H14/c1-3-7-19-15(5-1)9-11-17-14-22-18(13-21(17)19)12-10-16-6-2-4-8-20(16)22/h1-14H

>  <DTXSID>
DTXSID9020409

>  <DTXCID>
DTXCID10409

>  <CASRN>
53-70-3

>  <EXPOCAST_MEDIAN_EXPOSURE_PREDICTION_MG/KG-BW/DAY>
4.41E-06

>  <BIOCONCENTRATION_FACTOR_TEST_PRED>
587.489

>  <BOILING_POINT_DEGC_TEST_PRED>
516.208

>  <48HR_DAPHNIA_LC50_MOL/L_TEST_PRED>
4.06E-07

>  <DENSITY_G/CM^3_TEST_PRED>
1.242

>  <DEVTOX_TEST_PRED>
0.374

>  <96HR_FATHEAD_MINNOW_MOL/L_TEST_PRED>
1.53E-07

>  <FLASH_POINT_DEGC_TEST_PRED>
255.163

>  <MELTING_POINT_DEGC_TEST_PRED>
242.642

>  <AMES_MUTAGENICITY_TEST_PRED>
0.939

>  <ORAL_RAT_LD50_MOL/KG_TEST_PRED>
0.00156315

>  <SURFACE_TENSION_DYN/CM_TEST_PRED>
45

>  <THERMAL_CONDUCTIVITY_MW/(M*K)_TEST_PRED>
131.495

>  <TETRAHYMENA_PYRIFORMIS_IGC50_MOL/L_TEST_PRED>
1.93E-06

>  <VISCOSITY_CP_CP_TEST_PRED>
-

>  <VAPOR_PRESSURE_MMHG_TEST_PRED>
5.58E-10

>  <WATER_SOLUBILITY_MOL/L_TEST_PRED>
5.09E-09

>  <ATMOSPHERIC_HYDROXYLATION_RATE_(AOH)_CM3/MOLECULE*SEC_OPERA_PRED>
3.79E-11

>  <BIOCONCENTRATION_FACTOR_OPERA_PRED>
1330.31

>  <BIODEGRADATION_HALF_LIFE_DAYS_DAYS_OPERA_PRED>
419.839

>  <BOILING_POINT_DEGC_OPERA_PRED>
522.306

>  <HENRYS_LAW_ATM-M3/MOLE_OPERA_PRED>
9.24E-07

>  <OPERA_KM_DAYS_OPERA_PRED>
1.6449

>  <OCTANOL_AIR_PARTITION_COEFF_LOGKOA_OPERA_PRED>
11.6925

>  <SOIL_ADSORPTION_COEFFICIENT_KOC_L/KG_OPERA_PRED>
1657520

>  <OCTANOL_WATER_PARTITION_LOGP_OPERA_PRED>
6.72079

>  <MELTING_POINT_DEGC_OPERA_PRED>
271.5

>  <VAPOR_PRESSURE_MMHG_OPERA_PRED>
9.50E-10

>  <WATER_SOLUBILITY_MOL/L_OPERA_PRED>
5.56E-09

>  <Shape Index>
0.54545

>  <Molecular Flexibility>
0

>  <Molecular Complexity>
0.75107

>  <Electronegative Atoms>
0

>  <Stereo Centers>
0

>  <Rotatable Bonds>
0

>  <Rings Closures>
5

>  <Aromatic Rings>
5

>  <Aromatic Atoms>
22

>  <Amides>
0

>  <Amines>
0

>  <Aromatic Nitrogens>
0

>  <Shape Index 2>
0.54545

>  <Molecular Flexibility 2>
0

>  <Molecular Complexity 2>
0.75107

>  <Non-C/H Atoms>
0

>  <Electronegative Atoms 2>
0

>  <Stereo Centers 2>
0

>  <Rotatable Bonds 2>
0

>  <Rings Closures 2>
5

>  <Aromatic Rings 2>
5

>  <Aromatic Atoms 2>
22

>  <sp3-Atoms>
0

>  <Amides 2>
0

>  <Amines 2>
0

>  <Aromatic Nitrogens 2>
0

>  <Basic Nitrogens>
0

$$$$
1-Methylphenanthrene
Actelion Java MolfileCreator 2.0

  0  0  0  0  0  0              0 V3000
M  V30 BEGIN CTAB
M  V30 COUNTS 15 17 0 0 0
M  V30 BEGIN ATOM
M  V30 1 C 0.0 0.0 0.0 0
M  V30 2 C -0.0117 1.5093 0.0 0
M  V30 3 C -1.3088 -0.731 0.0 0
M  V30 4 C 1.2852 -0.731 0.0 0
M  V30 5 C -1.3206 2.2757 0.0 0
M  V30 6 C 1.2734 2.2639 0.0 0
M  V30 7 C -1.3206 -2.2167 0.0 0
M  V30 8 C -2.6177 0.0235 0.0 0
M  V30 9 C 1.2734 -2.2167 0.0 0
M  V30 10 C -2.6294 1.5446 0.0 0
M  V30 11 C -1.3324 3.785 0.0 0
M  V30 12 C 1.2616 3.7732 0.0 0
M  V30 13 C -0.0353 -2.9478 0.0 0
M  V30 14 C -2.6294 -2.9478 0.0 0
M  V30 15 C -0.0471 4.5397 0.0 0
M  V30 END ATOM
M  V30 BEGIN BOND
M  V30 1 2 1 2
M  V30 2 1 1 3
M  V30 3 1 1 4
M  V30 4 1 2 5
M  V30 5 1 2 6
M  V30 6 1 3 7
M  V30 7 2 3 8
M  V30 8 2 4 9
M  V30 9 2 5 10
M  V30 10 1 5 11
M  V30 11 2 6 12
M  V30 12 2 7 13
M  V30 13 1 7 14
M  V30 14 2 11 15
M  V30 15 1 8 10
M  V30 16 1 9 13
M  V30 17 1 12 15
M  V30 END BOND
M  V30 END CTAB
M  END
>  <Molecule Name>
1-Methylphenanthrene

>  <Order (spectra)>
34

>  <NAME>
1-Methylphenanthrene

>  <Molecular Formula>
C15H12

>  <Monoisotopic Mass>
192.0939

>  <SMILES>
CC1=C2C=CC3=CC=CC=C3C2=CC=C1

>  <InChI>
InChI=1S/C15H12/c1-11-5-4-8-15-13(11)10-9-12-6-2-3-7-14(12)15/h2-10H,1H3

>  <InChIKey>
DOWJXOHBNXRUOD-UHFFFAOYSA-N

>  <Kingdom>
Organic compounds

>  <Superclass>
Benzenoids

>  <Class>
Phenanthrenes and derivatives

>  <Subclass>


>  <Parent Level 1>
Phenanthrenes and derivatives

>  <Parent Level 2>


>  <Parent Level 3>


>  <cLogP>
4.3923

>  <cLogS>
-5.172

>  <Druglikeness>
-2.4599

>  <NP-class probability>
1

>  <SmilesFragFp 3>


>  <MS_READY_SMILES>
CC1=C2C=CC3=CC=CC=C3C2=CC=C1

>  <MS_READY_InChI>
InChI=1S/C15H12/c1-11-5-4-8-15-13(11)10-9-12-6-2-3-7-14(12)15/h2-10H,1H3

>  <QSAR_READY_SMILES>
CC1=C2C=CC3=CC=CC=C3C2=CC=C1

>  <QSAR_READY_InChI>
InChI=1S/C15H12/c1-11-5-4-8-15-13(11)10-9-12-6-2-3-7-14(12)15/h2-10H,1H3

>  <DTXSID>
DTXSID6025648

>  <DTXCID>
DTXCID105648

>  <CASRN>
832-69-9

>  <EXPOCAST_MEDIAN_EXPOSURE_PREDICTION_MG/KG-BW/DAY>
2.08E-06

>  <BIOCONCENTRATION_FACTOR_TEST_PRED>
414.954

>  <BOILING_POINT_DEGC_TEST_PRED>
342.976

>  <48HR_DAPHNIA_LC50_MOL/L_TEST_PRED>
3.40E-06

>  <DENSITY_G/CM^3_TEST_PRED>
1.094

>  <DEVTOX_TEST_PRED>
0.72

>  <96HR_FATHEAD_MINNOW_MOL/L_TEST_PRED>
2.01E-06

>  <FLASH_POINT_DEGC_TEST_PRED>
156.508

>  <MELTING_POINT_DEGC_TEST_PRED>
93.052

>  <AMES_MUTAGENICITY_TEST_PRED>
0.677

>  <ORAL_RAT_LD50_MOL/KG_TEST_PRED>
0.0074817

>  <SURFACE_TENSION_DYN/CM_TEST_PRED>
38.238

>  <THERMAL_CONDUCTIVITY_MW/(M*K)_TEST_PRED>
124.188

>  <TETRAHYMENA_PYRIFORMIS_IGC50_MOL/L_TEST_PRED>
3.17E-05

>  <VISCOSITY_CP_CP_TEST_PRED>
-

>  <VAPOR_PRESSURE_MMHG_TEST_PRED>
1.79E-05

>  <WATER_SOLUBILITY_MOL/L_TEST_PRED>
2.65E-06

>  <ATMOSPHERIC_HYDROXYLATION_RATE_(AOH)_CM3/MOLECULE*SEC_OPERA_PRED>
1.10E-10

>  <BIOCONCENTRATION_FACTOR_OPERA_PRED>
692.299

>  <BIODEGRADATION_HALF_LIFE_DAYS_DAYS_OPERA_PRED>
23.0857

>  <BOILING_POINT_DEGC_OPERA_PRED>
275.107

>  <HENRYS_LAW_ATM-M3/MOLE_OPERA_PRED>
4.93E-05

>  <OPERA_KM_DAYS_OPERA_PRED>
4.25898

>  <OCTANOL_AIR_PARTITION_COEFF_LOGKOA_OPERA_PRED>
7.55285

>  <SOIL_ADSORPTION_COEFFICIENT_KOC_L/KG_OPERA_PRED>
27284

>  <OCTANOL_WATER_PARTITION_LOGP_OPERA_PRED>
5.08005

>  <MELTING_POINT_DEGC_OPERA_PRED>
85.9996

>  <VAPOR_PRESSURE_MMHG_OPERA_PRED>
1.52E-05

>  <WATER_SOLUBILITY_MOL/L_OPERA_PRED>
1.41E-06

>  <Shape Index>
0.53333

>  <Molecular Flexibility>
0

>  <Molecular Complexity>
0.64123

>  <Electronegative Atoms>
0

>  <Stereo Centers>
0

>  <Rotatable Bonds>
0

>  <Rings Closures>
3

>  <Aromatic Rings>
3

>  <Aromatic Atoms>
14

>  <Amides>
0

>  <Amines>
0

>  <Aromatic Nitrogens>
0

>  <Shape Index 2>
0.53333

>  <Molecular Flexibility 2>
0

>  <Molecular Complexity 2>
0.64123

>  <Non-C/H Atoms>
0

>  <Electronegative Atoms 2>
0

>  <Stereo Centers 2>
0

>  <Rotatable Bonds 2>
0

>  <Rings Closures 2>
3

>  <Aromatic Rings 2>
3

>  <Aromatic Atoms 2>
14

>  <sp3-Atoms>
1

>  <Amides 2>
0

>  <Amines 2>
0

>  <Aromatic Nitrogens 2>
0

>  <Basic Nitrogens>
0

$$$$
1,4-Chrysenequinone
Actelion Java MolfileCreator 2.0

  0  0  0  0  0  0              0 V3000
M  V30 BEGIN CTAB
M  V30 COUNTS 20 23 0 0 0
M  V30 BEGIN ATOM
M  V30 1 O 0.0 0.0 0.0 0
M  V30 2 C -1.3061 -0.7295 0.0 0
M  V30 3 C -2.6123 0.0235 0.0 0
M  V30 4 C -1.3179 -2.2122 0.0 0
M  V30 5 C -3.9185 -0.706 0.0 0
M  V30 6 C -2.6241 1.5297 0.0 0
M  V30 7 C -2.6241 -2.9418 0.0 0
M  V30 8 C -3.9302 -2.1887 0.0 0
M  V30 9 C -5.2247 0.047 0.0 0
M  V30 10 C -3.9302 2.2828 0.0 0
M  V30 11 C -1.3414 2.2828 0.0 0
M  V30 12 O -5.2364 -2.9183 0.0 0
M  V30 13 C -5.2364 1.5532 0.0 0
M  V30 14 C -3.942 3.789 0.0 0
M  V30 15 C -1.3532 3.789 0.0 0
M  V30 16 C -2.6594 4.5421 0.0 0
M  V30 17 C -5.2482 4.5421 0.0 0
M  V30 18 C -2.6711 6.0484 0.0 0
M  V30 19 C -5.26 6.0484 0.0 0
M  V30 20 C -3.9773 6.8015 0.0 0
M  V30 END ATOM
M  V30 BEGIN BOND
M  V30 1 2 1 2
M  V30 2 1 2 3
M  V30 3 1 2 4
M  V30 4 2 3 5
M  V30 5 1 3 6
M  V30 6 2 4 7
M  V30 7 1 5 8
M  V30 8 1 5 9
M  V30 9 1 6 10
M  V30 10 2 6 11
M  V30 11 2 8 12
M  V30 12 2 9 13
M  V30 13 2 10 14
M  V30 14 1 11 15
M  V30 15 1 14 16
M  V30 16 1 14 17
M  V30 17 1 16 18
M  V30 18 2 17 19
M  V30 19 2 18 20
M  V30 20 1 7 8
M  V30 21 1 10 13
M  V30 22 2 15 16
M  V30 23 1 19 20
M  V30 END BOND
M  V30 END CTAB
M  END
>  <Molecule Name>
1,4-Chrysenequinone

>  <Order (spectra)>
185

>  <NAME>
1,4-Chrysenequinone

>  <Molecular Formula>
C18H10O2

>  <Monoisotopic Mass>
258.06808

>  <SMILES>
O=C1C=CC(=O)C2=C1C=CC1=C2C=CC2=CC=CC=C12

>  <InChI>
InChI=1S/C18H10O2/c19-16-9-10-17(20)18-14-6-5-11-3-1-2-4-12(11)13(14)7-8-15(16)18/h1-10H

>  <InChIKey>
UORKIKBNUWJNJF-UHFFFAOYSA-N

>  <Kingdom>
Organic compounds

>  <Superclass>
Benzenoids

>  <Class>
Phenanthrenes and derivatives

>  <Subclass>


>  <Parent Level 1>
Phenanthrenes and derivatives

>  <Parent Level 2>


>  <Parent Level 3>


>  <cLogP>
3.8282

>  <cLogS>
-6.054

>  <Druglikeness>
0.26454

>  <NP-class probability>
0.88

>  <SmilesFragFp 3>


>  <MS_READY_SMILES>
O=C1C=CC(=O)C2=C1C=CC1=C2C=CC2=CC=CC=C12

>  <MS_READY_InChI>
InChI=1S/C18H10O2/c19-16-9-10-17(20)18-14-6-5-11-3-1-2-4-12(11)13(14)7-8-15(16)18/h1-10H

>  <QSAR_READY_SMILES>
O=C1C=CC(=O)C2=C1C=CC1=C2C=CC2=CC=CC=C12

>  <QSAR_READY_InChI>
InChI=1S/C18H10O2/c19-16-9-10-17(20)18-14-6-5-11-3-1-2-4-12(11)13(14)7-8-15(16)18/h1-10H

>  <DTXSID>
DTXSID90143571

>  <DTXCID>
DTXCID2066062

>  <CASRN>
100900-16-1

>  <EXPOCAST_MEDIAN_EXPOSURE_PREDICTION_MG/KG-BW/DAY>
7.47E-07

>  <BIOCONCENTRATION_FACTOR_TEST_PRED>
36.4754

>  <BOILING_POINT_DEGC_TEST_PRED>
425.765

>  <48HR_DAPHNIA_LC50_MOL/L_TEST_PRED>
7.48E-06

>  <DENSITY_G/CM^3_TEST_PRED>
1.322

>  <DEVTOX_TEST_PRED>
0.726

>  <96HR_FATHEAD_MINNOW_MOL/L_TEST_PRED>
4.11E-07

>  <FLASH_POINT_DEGC_TEST_PRED>
216.359

>  <MELTING_POINT_DEGC_TEST_PRED>
203.265

>  <AMES_MUTAGENICITY_TEST_PRED>
0.77

>  <ORAL_RAT_LD50_MOL/KG_TEST_PRED>
0.00380189

>  <SURFACE_TENSION_DYN/CM_TEST_PRED>
45.297

>  <THERMAL_CONDUCTIVITY_MW/(M*K)_TEST_PRED>
129.888

>  <TETRAHYMENA_PYRIFORMIS_IGC50_MOL/L_TEST_PRED>
1.64E-06

>  <VISCOSITY_CP_CP_TEST_PRED>
-

>  <VAPOR_PRESSURE_MMHG_TEST_PRED>
7.24E-09

>  <WATER_SOLUBILITY_MOL/L_TEST_PRED>
3.34E-06

>  <ATMOSPHERIC_HYDROXYLATION_RATE_(AOH)_CM3/MOLECULE*SEC_OPERA_PRED>
1.60E-11

>  <BIOCONCENTRATION_FACTOR_OPERA_PRED>
26.6792

>  <BIODEGRADATION_HALF_LIFE_DAYS_DAYS_OPERA_PRED>
43.148

>  <BOILING_POINT_DEGC_OPERA_PRED>
417.586

>  <HENRYS_LAW_ATM-M3/MOLE_OPERA_PRED>
4.80E-08

>  <OPERA_KM_DAYS_OPERA_PRED>
0.450223

>  <OCTANOL_AIR_PARTITION_COEFF_LOGKOA_OPERA_PRED>
9.82169

>  <SOIL_ADSORPTION_COEFFICIENT_KOC_L/KG_OPERA_PRED>
5156.93

>  <OCTANOL_WATER_PARTITION_LOGP_OPERA_PRED>
3.95409

>  <MELTING_POINT_DEGC_OPERA_PRED>
168.964

>  <VAPOR_PRESSURE_MMHG_OPERA_PRED>
1.54E-09

>  <WATER_SOLUBILITY_MOL/L_OPERA_PRED>
2.05E-05

>  <Shape Index>
0.5

>  <Molecular Flexibility>
0.088608

>  <Molecular Complexity>
0.83644

>  <Electronegative Atoms>
2

>  <Stereo Centers>
0

>  <Rotatable Bonds>
0

>  <Rings Closures>
4

>  <Aromatic Rings>
3

>  <Aromatic Atoms>
14

>  <Amides>
0

>  <Amines>
0

>  <Aromatic Nitrogens>
0

>  <Shape Index 2>
0.5

>  <Molecular Flexibility 2>
0.088608

>  <Molecular Complexity 2>
0.83644

>  <Non-C/H Atoms>
2

>  <Electronegative Atoms 2>
2

>  <Stereo Centers 2>
0

>  <Rotatable Bonds 2>
0

>  <Rings Closures 2>
4

>  <Aromatic Rings 2>
3

>  <Aromatic Atoms 2>
14

>  <sp3-Atoms>
0

>  <Amides 2>
0

>  <Amines 2>
0

>  <Aromatic Nitrogens 2>
0

>  <Basic Nitrogens>
0

$$$$
Hydroxychrysene
Actelion Java MolfileCreator 2.0

  0  0  0  0  0  0              0 V3000
M  V30 BEGIN CTAB
M  V30 COUNTS 19 22 0 0 0
M  V30 BEGIN ATOM
M  V30 1 O 0.0 0.0 0.0 0
M  V30 2 C -1.3112 -0.7324 0.0 0
M  V30 3 C -2.6225 0.0236 0.0 0
M  V30 4 C -1.323 -2.2208 0.0 0
M  V30 5 C -3.9338 -0.7087 0.0 0
M  V30 6 C -2.6343 1.5357 0.0 0
M  V30 7 C -2.6343 -2.9533 0.0 0
M  V30 8 C -3.9456 -2.1972 0.0 0
M  V30 9 C -5.245 0.0472 0.0 0
M  V30 10 C -3.9456 2.2917 0.0 0
M  V30 11 C -2.6461 -4.4417 0.0 0
M  V30 12 C -5.2569 -2.9296 0.0 0
M  V30 13 C -5.2569 1.5593 0.0 0
M  V30 14 C -3.9574 -5.1742 0.0 0
M  V30 15 C -1.3585 -5.1742 0.0 0
M  V30 16 C -5.2687 -4.4181 0.0 0
M  V30 17 C -3.9692 -6.6626 0.0 0
M  V30 18 C -1.3703 -6.6626 0.0 0
M  V30 19 C -2.6816 -7.3951 0.0 0
M  V30 END ATOM
M  V30 BEGIN BOND
M  V30 1 1 1 2
M  V30 2 1 2 3
M  V30 3 2 2 4
M  V30 4 1 3 5
M  V30 5 2 3 6
M  V30 6 1 4 7
M  V30 7 1 5 8
M  V30 8 2 5 9
M  V30 9 1 6 10
M  V30 10 2 7 11
M  V30 11 2 8 12
M  V30 12 1 9 13
M  V30 13 1 11 14
M  V30 14 1 11 15
M  V30 15 1 12 16
M  V30 16 1 14 17
M  V30 17 2 15 18
M  V30 18 2 17 19
M  V30 19 1 7 8
M  V30 20 2 10 13
M  V30 21 2 14 16
M  V30 22 1 18 19
M  V30 END BOND
M  V30 END CTAB
M  END
>  <Molecule Name>
Hydroxychrysene

>  <Order (spectra)>
186

>  <NAME>
Hydroxychrysene

>  <Molecular Formula>
C18H12O

>  <Monoisotopic Mass>
244.088815

>  <SMILES>
OC1=CC2=C(C=CC3=C2C=CC=C3)C2=C1C=CC=C2

>  <InChI>
InChI=1S/C18H12O/c19-18-11-17-13-6-2-1-5-12(13)9-10-15(17)14-7-3-4-8-16(14)18/h1-11,19H

>  <InChIKey>
VXFDOYXVHRYCGS-UHFFFAOYSA-N

>  <Kingdom>
Organic compounds

>  <Superclass>
Benzenoids

>  <Class>
Phenanthrenes and derivatives

>  <Subclass>
Chrysenes

>  <Parent Level 1>
Chrysenes

>  <Parent Level 2>


>  <Parent Level 3>


>  <cLogP>
4.8971

>  <cLogS>
-6.138

>  <Druglikeness>
-2.2721

>  <NP-class probability>
1

>  <SmilesFragFp 3>


>  <MS_READY_SMILES>
OC1=CC2=C(C=CC3=C2C=CC=C3)C2=C1C=CC=C2

>  <MS_READY_InChI>
InChI=1S/C18H12O/c19-18-11-17-13-6-2-1-5-12(13)9-10-15(17)14-7-3-4-8-16(14)18/h1-11,19H

>  <QSAR_READY_SMILES>
OC1=CC2=C(C=CC3=C2C=CC=C3)C2=C1C=CC=C2

>  <QSAR_READY_InChI>
InChI=1S/C18H12O/c19-18-11-17-13-6-2-1-5-12(13)9-10-15(17)14-7-3-4-8-16(14)18/h1-11,19H

>  <DTXSID>
DTXSID6038324

>  <DTXCID>
DTXCID4018324

>  <CASRN>
37515-51-8

>  <EXPOCAST_MEDIAN_EXPOSURE_PREDICTION_MG/KG-BW/DAY>
7.41E-06

>  <BIOCONCENTRATION_FACTOR_TEST_PRED>
93.1108

>  <BOILING_POINT_DEGC_TEST_PRED>
478.003

>  <48HR_DAPHNIA_LC50_MOL/L_TEST_PRED>
1.55E-06

>  <DENSITY_G/CM^3_TEST_PRED>
1.279

>  <DEVTOX_TEST_PRED>
0.494

>  <96HR_FATHEAD_MINNOW_MOL/L_TEST_PRED>
3.99E-07

>  <FLASH_POINT_DEGC_TEST_PRED>
236.018

>  <MELTING_POINT_DEGC_TEST_PRED>
182.976

>  <AMES_MUTAGENICITY_TEST_PRED>
0.689

>  <ORAL_RAT_LD50_MOL/KG_TEST_PRED>
0.0113763

>  <SURFACE_TENSION_DYN/CM_TEST_PRED>
45.846

>  <THERMAL_CONDUCTIVITY_MW/(M*K)_TEST_PRED>
130.418

>  <TETRAHYMENA_PYRIFORMIS_IGC50_MOL/L_TEST_PRED>
5.42E-06

>  <VISCOSITY_CP_CP_TEST_PRED>
-

>  <VAPOR_PRESSURE_MMHG_TEST_PRED>
2.67E-09

>  <WATER_SOLUBILITY_MOL/L_TEST_PRED>
1.73E-06

>  <ATMOSPHERIC_HYDROXYLATION_RATE_(AOH)_CM3/MOLECULE*SEC_OPERA_PRED>
8.08E-11

>  <BIOCONCENTRATION_FACTOR_OPERA_PRED>
1270.77

>  <BIODEGRADATION_HALF_LIFE_DAYS_DAYS_OPERA_PRED>
66.0015

>  <BOILING_POINT_DEGC_OPERA_PRED>
418.111

>  <HENRYS_LAW_ATM-M3/MOLE_OPERA_PRED>
4.18E-08

>  <OPERA_KM_DAYS_OPERA_PRED>
0.360919

>  <OCTANOL_AIR_PARTITION_COEFF_LOGKOA_OPERA_PRED>
10.9599

>  <SOIL_ADSORPTION_COEFFICIENT_KOC_L/KG_OPERA_PRED>
178499

>  <OCTANOL_WATER_PARTITION_LOGP_OPERA_PRED>
4.22743

>  <MELTING_POINT_DEGC_OPERA_PRED>
169.253

>  <VAPOR_PRESSURE_MMHG_OPERA_PRED>
1.10E-08

>  <WATER_SOLUBILITY_MOL/L_OPERA_PRED>
1.00E-05

>  <Shape Index>
0.52632

>  <Molecular Flexibility>
0

>  <Molecular Complexity>
0.79871

>  <Electronegative Atoms>
1

>  <Stereo Centers>
0

>  <Rotatable Bonds>
0

>  <Rings Closures>
4

>  <Aromatic Rings>
4

>  <Aromatic Atoms>
18

>  <Amides>
0

>  <Amines>
0

>  <Aromatic Nitrogens>
0

>  <Shape Index 2>
0.52632

>  <Molecular Flexibility 2>
0

>  <Molecular Complexity 2>
0.79871

>  <Non-C/H Atoms>
1

>  <Electronegative Atoms 2>
1

>  <Stereo Centers 2>
0

>  <Rotatable Bonds 2>
0

>  <Rings Closures 2>
4

>  <Aromatic Rings 2>
4

>  <Aromatic Atoms 2>
18

>  <sp3-Atoms>
1

>  <Amides 2>
0

>  <Amines 2>
0

>  <Aromatic Nitrogens 2>
0

>  <Basic Nitrogens>
0

$$$$
7,12-Dimethylbenz[a]anthracene
Actelion Java MolfileCreator 2.0

  0  0  0  0  0  0              0 V3000
M  V30 BEGIN CTAB
M  V30 COUNTS 20 23 0 0 0
M  V30 BEGIN ATOM
M  V30 1 C 0.0 0.0 0.0 0
M  V30 2 C -0.0118 -1.4883 0.0 0
M  V30 3 C 1.2875 0.7559 0.0 0
M  V30 4 C -1.3111 0.7559 0.0 0
M  V30 5 C 1.2757 -2.2207 0.0 0
M  V30 6 C -1.3229 -2.2207 0.0 0
M  V30 7 C 1.2757 2.2679 0.0 0
M  V30 8 C 2.575 0.0236 0.0 0
M  V30 9 C -1.3229 2.2679 0.0 0
M  V30 10 C -2.6223 0.0236 0.0 0
M  V30 11 C 2.5632 -1.4647 0.0 0
M  V30 12 C 1.2639 -3.709 0.0 0
M  V30 13 C -1.3347 -3.709 0.0 0
M  V30 14 C -0.0354 3.0357 0.0 0
M  V30 15 C 2.5632 3.0239 0.0 0
M  V30 16 C -2.6341 3.0357 0.0 0
M  V30 17 C -0.0472 -4.4414 0.0 0
M  V30 18 C -0.0472 4.5477 0.0 0
M  V30 19 C -2.6459 4.5477 0.0 0
M  V30 20 C -1.3584 5.3155 0.0 0
M  V30 END ATOM
M  V30 BEGIN BOND
M  V30 1 2 1 2
M  V30 2 1 1 3
M  V30 3 1 1 4
M  V30 4 1 2 5
M  V30 5 1 2 6
M  V30 6 1 3 7
M  V30 7 2 3 8
M  V30 8 2 4 9
M  V30 9 1 4 10
M  V30 10 2 5 11
M  V30 11 1 5 12
M  V30 12 2 6 13
M  V30 13 2 7 14
M  V30 14 1 7 15
M  V30 15 1 9 16
M  V30 16 2 12 17
M  V30 17 1 14 18
M  V30 18 2 16 19
M  V30 19 2 18 20
M  V30 20 1 8 11
M  V30 21 1 9 14
M  V30 22 1 13 17
M  V30 23 1 19 20
M  V30 END BOND
M  V30 END CTAB
M  END
>  <Molecule Name>
7,12-Dimethylbenz[a]anthracene

>  <Order (spectra)>
198

>  <NAME>
7,12-Dimethylbenz[a]anthracene

>  <Molecular Formula>
C20H16

>  <Monoisotopic Mass>
256.1252

>  <SMILES>
CC1=C2C=CC=CC2=C(C)C2=C3C=CC=CC3=CC=C12

>  <InChI>
InChI=1S/C20H16/c1-13-16-8-5-6-9-17(16)14(2)20-18(13)12-11-15-7-3-4-10-19(15)20/h3-12H,1-2H3

>  <InChIKey>
ARSRBNBHOADGJU-UHFFFAOYSA-N

>  <Kingdom>
Organic compounds

>  <Superclass>
Benzenoids

>  <Class>
Phenanthrenes and derivatives

>  <Subclass>


>  <Parent Level 1>
Phenanthrenes and derivatives

>  <Parent Level 2>


>  <Parent Level 3>


>  <cLogP>
5.9306

>  <cLogS>
-7.122

>  <Druglikeness>
-2.4599

>  <NP-class probability>
0.83

>  <SmilesFragFp 3>


>  <MS_READY_SMILES>
CC1=C2C=CC=CC2=C(C)C2=C3C=CC=CC3=CC=C12

>  <MS_READY_InChI>
InChI=1S/C20H16/c1-13-16-8-5-6-9-17(16)14(2)20-18(13)12-11-15-7-3-4-10-19(15)20/h3-12H,1-2H3

>  <QSAR_READY_SMILES>
CC1=C2C=CC=CC2=C(C)C2=C3C=CC=CC3=CC=C12

>  <QSAR_READY_InChI>
InChI=1S/C20H16/c1-13-16-8-5-6-9-17(16)14(2)20-18(13)12-11-15-7-3-4-10-19(15)20/h3-12H,1-2H3

>  <DTXSID>
DTXSID1020510

>  <DTXCID>
DTXCID70510

>  <CASRN>
57-97-6

>  <EXPOCAST_MEDIAN_EXPOSURE_PREDICTION_MG/KG-BW/DAY>
6.79E-06

>  <BIOCONCENTRATION_FACTOR_TEST_PRED>
610.942

>  <BOILING_POINT_DEGC_TEST_PRED>
470.369

>  <48HR_DAPHNIA_LC50_MOL/L_TEST_PRED>
4.74E-07

>  <DENSITY_G/CM^3_TEST_PRED>
1.143

>  <DEVTOX_TEST_PRED>
0.724

>  <96HR_FATHEAD_MINNOW_MOL/L_TEST_PRED>
6.90E-07

>  <FLASH_POINT_DEGC_TEST_PRED>
218.164

>  <MELTING_POINT_DEGC_TEST_PRED>
151.169

>  <AMES_MUTAGENICITY_TEST_PRED>
0.511

>  <ORAL_RAT_LD50_MOL/KG_TEST_PRED>
-

>  <SURFACE_TENSION_DYN/CM_TEST_PRED>
39.302

>  <THERMAL_CONDUCTIVITY_MW/(M*K)_TEST_PRED>
122

>  <TETRAHYMENA_PYRIFORMIS_IGC50_MOL/L_TEST_PRED>
3.50E-06

>  <VISCOSITY_CP_CP_TEST_PRED>
-

>  <VAPOR_PRESSURE_MMHG_TEST_PRED>
4.62E-09

>  <WATER_SOLUBILITY_MOL/L_TEST_PRED>
1.10E-07

>  <ATMOSPHERIC_HYDROXYLATION_RATE_(AOH)_CM3/MOLECULE*SEC_OPERA_PRED>
2.12E-11

>  <BIOCONCENTRATION_FACTOR_OPERA_PRED>
1025.53

>  <BIODEGRADATION_HALF_LIFE_DAYS_DAYS_OPERA_PRED>
163.91

>  <BOILING_POINT_DEGC_OPERA_PRED>
446.19

>  <HENRYS_LAW_ATM-M3/MOLE_OPERA_PRED>
5.79E-06

>  <OPERA_KM_DAYS_OPERA_PRED>
1.04147

>  <OCTANOL_AIR_PARTITION_COEFF_LOGKOA_OPERA_PRED>
10.2459

>  <SOIL_ADSORPTION_COEFFICIENT_KOC_L/KG_OPERA_PRED>
234266

>  <OCTANOL_WATER_PARTITION_LOGP_OPERA_PRED>
5.80033

>  <MELTING_POINT_DEGC_OPERA_PRED>
126.152

>  <VAPOR_PRESSURE_MMHG_OPERA_PRED>
1.88E-08

>  <WATER_SOLUBILITY_MOL/L_OPERA_PRED>
1.14E-07

>  <Shape Index>
0.5

>  <Molecular Flexibility>
0

>  <Molecular Complexity>
0.76921

>  <Electronegative Atoms>
0

>  <Stereo Centers>
0

>  <Rotatable Bonds>
0

>  <Rings Closures>
4

>  <Aromatic Rings>
4

>  <Aromatic Atoms>
18

>  <Amides>
0

>  <Amines>
0

>  <Aromatic Nitrogens>
0

>  <Shape Index 2>
0.5

>  <Molecular Flexibility 2>
0

>  <Molecular Complexity 2>
0.76921

>  <Non-C/H Atoms>
0

>  <Electronegative Atoms 2>
0

>  <Stereo Centers 2>
0

>  <Rotatable Bonds 2>
0

>  <Rings Closures 2>
4

>  <Aromatic Rings 2>
4

>  <Aromatic Atoms 2>
18

>  <sp3-Atoms>
2

>  <Amides 2>
0

>  <Amines 2>
0

>  <Aromatic Nitrogens 2>
0

>  <Basic Nitrogens>
0

$$$$
Allyl 2,4,6-tribromophenyl ether
Actelion Java MolfileCreator 2.0

  0  0  0  0  0  0              0 V3000
M  V30 BEGIN CTAB
M  V30 COUNTS 13 13 0 0 0
M  V30 BEGIN ATOM
M  V30 1 Br 0.0 0.0 0.0 0
M  V30 2 C -0.0118 -1.4894 0.0 0
M  V30 3 C -1.3239 -2.2341 0.0 0
M  V30 4 C 1.2766 -2.2341 0.0 0
M  V30 5 O -2.636 -1.4776 0.0 0
M  V30 6 C -1.3357 -3.7235 0.0 0
M  V30 7 C 1.2648 -3.7235 0.0 0
M  V30 8 C -3.9481 -2.2223 0.0 0
M  V30 9 Br -2.6478 -4.4564 0.0 0
M  V30 10 C -0.0472 -4.4682 0.0 0
M  V30 11 Br 2.5532 -4.4682 0.0 0
M  V30 12 C -5.2602 -1.4657 0.0 0
M  V30 13 C -6.5723 -2.2104 0.0 0
M  V30 END ATOM
M  V30 BEGIN BOND
M  V30 1 1 1 2
M  V30 2 2 2 3
M  V30 3 1 2 4
M  V30 4 1 3 5
M  V30 5 1 3 6
M  V30 6 2 4 7
M  V30 7 1 5 8
M  V30 8 1 6 9
M  V30 9 2 6 10
M  V30 10 1 7 11
M  V30 11 1 8 12
M  V30 12 2 12 13
M  V30 13 1 7 10
M  V30 END BOND
M  V30 END CTAB
M  END
>  <Molecule Name>
Allyl 2,4,6-tribromophenyl ether

>  <Order (spectra)>
115

>  <NAME>
Allyl 2,4,6-tribromophenyl ether

>  <Molecular Formula>
C9H7OBr3

>  <Monoisotopic Mass>
367.804698

>  <SMILES>
BrC1=CC(Br)=C(OCC=C)C(Br)=C1

>  <InChI>
InChI=1S/C9H7Br3O/c1-2-3-13-9-7(11)4-6(10)5-8(9)12/h2,4-5H,1,3H2

>  <InChIKey>
RZLLIOPGUFOWOD-UHFFFAOYSA-N

>  <Kingdom>
Organic compounds

>  <Superclass>
Benzenoids

>  <Class>
Phenol ethers

>  <Subclass>


>  <Parent Level 1>
Phenol ethers

>  <Parent Level 2>


>  <Parent Level 3>


>  <cLogP>
4.4404

>  <cLogS>
-4.645

>  <Druglikeness>
-9.5453

>  <NP-class probability>
0.39

>  <SmilesFragFp 3>


>  <MS_READY_SMILES>
BrC1=CC(Br)=C(OCC=C)C(Br)=C1

>  <MS_READY_InChI>
InChI=1S/C9H7Br3O/c1-2-3-13-9-7(11)4-6(10)5-8(9)12/h2,4-5H,1,3H2

>  <QSAR_READY_SMILES>
BrC1=CC(Br)=C(OCC=C)C(Br)=C1

>  <QSAR_READY_InChI>
InChI=1S/C9H7Br3O/c1-2-3-13-9-7(11)4-6(10)5-8(9)12/h2,4-5H,1,3H2

>  <DTXSID>
DTXSID3044918

>  <DTXCID>
DTXCID1024918

>  <CASRN>
3278-89-5

>  <EXPOCAST_MEDIAN_EXPOSURE_PREDICTION_MG/KG-BW/DAY>
7.34E-06

>  <BIOCONCENTRATION_FACTOR_TEST_PRED>
281.19

>  <BOILING_POINT_DEGC_TEST_PRED>
350.795

>  <48HR_DAPHNIA_LC50_MOL/L_TEST_PRED>
7.82E-07

>  <DENSITY_G/CM^3_TEST_PRED>
2.382

>  <DEVTOX_TEST_PRED>
-

>  <96HR_FATHEAD_MINNOW_MOL/L_TEST_PRED>
8.38E-07

>  <FLASH_POINT_DEGC_TEST_PRED>
154.084

>  <MELTING_POINT_DEGC_TEST_PRED>
93.087

>  <AMES_MUTAGENICITY_TEST_PRED>
0.286

>  <ORAL_RAT_LD50_MOL/KG_TEST_PRED>
-

>  <SURFACE_TENSION_DYN/CM_TEST_PRED>
-

>  <THERMAL_CONDUCTIVITY_MW/(M*K)_TEST_PRED>
111.099

>  <TETRAHYMENA_PYRIFORMIS_IGC50_MOL/L_TEST_PRED>
3.26E-06

>  <VISCOSITY_CP_CP_TEST_PRED>
4.32514

>  <VAPOR_PRESSURE_MMHG_TEST_PRED>
2.33E-05

>  <WATER_SOLUBILITY_MOL/L_TEST_PRED>
4.38E-07

>  <ATMOSPHERIC_HYDROXYLATION_RATE_(AOH)_CM3/MOLECULE*SEC_OPERA_PRED>
6.85E-11

>  <BIOCONCENTRATION_FACTOR_OPERA_PRED>
2587.33

>  <BIODEGRADATION_HALF_LIFE_DAYS_DAYS_OPERA_PRED>
3.35542

>  <BOILING_POINT_DEGC_OPERA_PRED>
328.331

>  <HENRYS_LAW_ATM-M3/MOLE_OPERA_PRED>
0.000470176

>  <OPERA_KM_DAYS_OPERA_PRED>
1.79871

>  <OCTANOL_AIR_PARTITION_COEFF_LOGKOA_OPERA_PRED>
7.815

>  <SOIL_ADSORPTION_COEFFICIENT_KOC_L/KG_OPERA_PRED>
4743.5

>  <OCTANOL_WATER_PARTITION_LOGP_OPERA_PRED>
4.84861

>  <MELTING_POINT_DEGC_OPERA_PRED>
62.1239

>  <VAPOR_PRESSURE_MMHG_OPERA_PRED>
0.00364149

>  <WATER_SOLUBILITY_MOL/L_OPERA_PRED>
0.000046176

>  <Shape Index>
0.69231

>  <Molecular Flexibility>
0.4673

>  <Molecular Complexity>
0.68239

>  <Electronegative Atoms>
4

>  <Stereo Centers>
0

>  <Rotatable Bonds>
3

>  <Rings Closures>
1

>  <Aromatic Rings>
1

>  <Aromatic Atoms>
6

>  <Amides>
0

>  <Amines>
0

>  <Aromatic Nitrogens>
0

>  <Shape Index 2>
0.69231

>  <Molecular Flexibility 2>
0.4673

>  <Molecular Complexity 2>
0.68239

>  <Non-C/H Atoms>
4

>  <Electronegative Atoms 2>
4

>  <Stereo Centers 2>
0

>  <Rotatable Bonds 2>
3

>  <Rings Closures 2>
1

>  <Aromatic Rings 2>
1

>  <Aromatic Atoms 2>
6

>  <sp3-Atoms>
2

>  <Amides 2>
0

>  <Amines 2>
0

>  <Aromatic Nitrogens 2>
0

>  <Basic Nitrogens>
0

$$$$
2-Bromoallyl(2,4,6-tribromophenyl) ether
Actelion Java MolfileCreator 2.0

  0  0  0  0  0  0              0 V3000
M  V30 BEGIN CTAB
M  V30 COUNTS 14 14 0 0 0
M  V30 BEGIN ATOM
M  V30 1 Br 0.0 0.0 0.0 0
M  V30 2 C -0.0118 -1.4884 0.0 0
M  V30 3 C -1.3231 -2.2327 0.0 0
M  V30 4 C 1.2758 -2.2327 0.0 0
M  V30 5 O -2.6343 -1.4766 0.0 0
M  V30 6 C -1.3349 -3.7212 0.0 0
M  V30 7 C 1.264 -3.7212 0.0 0
M  V30 8 C -3.9456 -2.2209 0.0 0
M  V30 9 Br -2.6462 -4.4536 0.0 0
M  V30 10 C -0.0472 -4.4654 0.0 0
M  V30 11 Br 2.5517 -4.4654 0.0 0
M  V30 12 C -5.2569 -1.4648 0.0 0
M  V30 13 Br -5.2687 0.0472 0.0 0
M  V30 14 C -6.5682 -2.2091 0.0 0
M  V30 END ATOM
M  V30 BEGIN BOND
M  V30 1 1 1 2
M  V30 2 2 2 3
M  V30 3 1 2 4
M  V30 4 1 3 5
M  V30 5 1 3 6
M  V30 6 2 4 7
M  V30 7 1 5 8
M  V30 8 1 6 9
M  V30 9 2 6 10
M  V30 10 1 7 11
M  V30 11 1 8 12
M  V30 12 1 12 13
M  V30 13 2 12 14
M  V30 14 1 7 10
M  V30 END BOND
M  V30 END CTAB
M  END
>  <Molecule Name>
2-Bromoallyl(2,4,6-tribromophenyl) ether

>  <Order (spectra)>
116

>  <NAME>
2-Bromoallyl(2,4,6-tribromophenyl) ether

>  <Molecular Formula>
C9H6OBr4

>  <Monoisotopic Mass>
445.715209

>  <SMILES>
BrC(=C)COC1=C(Br)C=C(Br)C=C1Br

>  <InChI>
InChI=1S/C9H6Br4O/c1-5(10)4-14-9-7(12)2-6(11)3-8(9)13/h2-3H,1,4H2

>  <InChIKey>
RLPZXGWCSHFKJI-UHFFFAOYSA-N

>  <Kingdom>
Organic compounds

>  <Superclass>
Benzenoids

>  <Class>
Phenol ethers

>  <Subclass>


>  <Parent Level 1>
Phenol ethers

>  <Parent Level 2>


>  <Parent Level 3>


>  <cLogP>
5.033

>  <cLogS>
-5.478

>  <Druglikeness>
-8.8653

>  <NP-class probability>
0.36

>  <SmilesFragFp 3>


>  <MS_READY_SMILES>
BrC(=C)COC1=C(Br)C=C(Br)C=C1Br

>  <MS_READY_InChI>
InChI=1S/C9H6Br4O/c1-5(10)4-14-9-7(12)2-6(11)3-8(9)13/h2-3H,1,4H2

>  <QSAR_READY_SMILES>
BrC(=C)COC1=C(Br)C=C(Br)C=C1Br

>  <QSAR_READY_InChI>
InChI=1S/C9H6Br4O/c1-5(10)4-14-9-7(12)2-6(11)3-8(9)13/h2-3H,1,4H2

>  <DTXSID>
DTXSID00904130

>  <DTXCID>
DTXCID101332013

>  <CASRN>
99717-56-3

>  <EXPOCAST_MEDIAN_EXPOSURE_PREDICTION_MG/KG-BW/DAY>
-

>  <BIOCONCENTRATION_FACTOR_TEST_PRED>
-

>  <BOILING_POINT_DEGC_TEST_PRED>
-

>  <48HR_DAPHNIA_LC50_MOL/L_TEST_PRED>
-

>  <DENSITY_G/CM^3_TEST_PRED>
-

>  <DEVTOX_TEST_PRED>
-

>  <96HR_FATHEAD_MINNOW_MOL/L_TEST_PRED>
-

>  <FLASH_POINT_DEGC_TEST_PRED>
-

>  <MELTING_POINT_DEGC_TEST_PRED>
-

>  <AMES_MUTAGENICITY_TEST_PRED>
-

>  <ORAL_RAT_LD50_MOL/KG_TEST_PRED>
-

>  <SURFACE_TENSION_DYN/CM_TEST_PRED>
-

>  <THERMAL_CONDUCTIVITY_MW/(M*K)_TEST_PRED>
-

>  <TETRAHYMENA_PYRIFORMIS_IGC50_MOL/L_TEST_PRED>
-

>  <VISCOSITY_CP_CP_TEST_PRED>
-

>  <VAPOR_PRESSURE_MMHG_TEST_PRED>
-

>  <WATER_SOLUBILITY_MOL/L_TEST_PRED>
-

>  <ATMOSPHERIC_HYDROXYLATION_RATE_(AOH)_CM3/MOLECULE*SEC_OPERA_PRED>
7.06E-11

>  <BIOCONCENTRATION_FACTOR_OPERA_PRED>
3808.12

>  <BIODEGRADATION_HALF_LIFE_DAYS_DAYS_OPERA_PRED>
4.73663

>  <BOILING_POINT_DEGC_OPERA_PRED>
328.997

>  <HENRYS_LAW_ATM-M3/MOLE_OPERA_PRED>
0.000100416

>  <OPERA_KM_DAYS_OPERA_PRED>
3.9115

>  <OCTANOL_AIR_PARTITION_COEFF_LOGKOA_OPERA_PRED>
8.91436

>  <SOIL_ADSORPTION_COEFFICIENT_KOC_L/KG_OPERA_PRED>
17853.9

>  <OCTANOL_WATER_PARTITION_LOGP_OPERA_PRED>
5.1432

>  <MELTING_POINT_DEGC_OPERA_PRED>
57.936

>  <VAPOR_PRESSURE_MMHG_OPERA_PRED>
0.000225532

>  <WATER_SOLUBILITY_MOL/L_OPERA_PRED>
7.72E-06

>  <Shape Index>
0.64286

>  <Molecular Flexibility>
0.47649

>  <Molecular Complexity>
0.63634

>  <Electronegative Atoms>
5

>  <Stereo Centers>
0

>  <Rotatable Bonds>
3

>  <Rings Closures>
1

>  <Aromatic Rings>
1

>  <Aromatic Atoms>
6

>  <Amides>
0

>  <Amines>
0

>  <Aromatic Nitrogens>
0

>  <Shape Index 2>
0.64286

>  <Molecular Flexibility 2>
0.47649

>  <Molecular Complexity 2>
0.63634

>  <Non-C/H Atoms>
5

>  <Electronegative Atoms 2>
5

>  <Stereo Centers 2>
0

>  <Rotatable Bonds 2>
3

>  <Rings Closures 2>
1

>  <Aromatic Rings 2>
1

>  <Aromatic Atoms 2>
6

>  <sp3-Atoms>
2

>  <Amides 2>
0

>  <Amines 2>
0

>  <Aromatic Nitrogens 2>
0

>  <Basic Nitrogens>
0

$$$$
Estragole
Actelion Java MolfileCreator 2.0

  0  0  0  0  0  0              0 V3000
M  V30 BEGIN CTAB
M  V30 COUNTS 11 11 0 0 0
M  V30 BEGIN ATOM
M  V30 1 O 0.0 0.0 0.0 0
M  V30 2 C -1.3067 -0.7416 0.0 0
M  V30 3 C -0.0117 1.5068 0.0 0
M  V30 4 C -2.6134 0.0117 0.0 0
M  V30 5 C -1.3185 -2.225 0.0 0
M  V30 6 C -3.9202 -0.7298 0.0 0
M  V30 7 C -2.6252 -2.9548 0.0 0
M  V30 8 C -3.932 -2.2132 0.0 0
M  V30 9 C -5.2387 -2.9548 0.0 0
M  V30 10 C -6.5455 -2.2014 0.0 0
M  V30 11 C -7.8522 -2.9431 0.0 0
M  V30 END ATOM
M  V30 BEGIN BOND
M  V30 1 1 1 2
M  V30 2 1 1 3
M  V30 3 2 2 4
M  V30 4 1 2 5
M  V30 5 1 4 6
M  V30 6 2 5 7
M  V30 7 2 6 8
M  V30 8 1 8 9
M  V30 9 1 9 10
M  V30 10 2 10 11
M  V30 11 1 7 8
M  V30 END BOND
M  V30 END CTAB
M  END
>  <Molecule Name>
Estragole

>  <Order (spectra)>
139

>  <NAME>
Estragole

>  <Molecular Formula>
C10H12O

>  <Monoisotopic Mass>
148.088815

>  <SMILES>
COC1=CC=C(CC=C)C=C1

>  <InChI>
InChI=1S/C10H12O/c1-3-4-9-5-7-10(11-2)8-6-9/h3,5-8H,1,4H2,2H3

>  <InChIKey>
ZFMSMUAANRJZFM-UHFFFAOYSA-N

>  <Kingdom>
Organic compounds

>  <Superclass>
Benzenoids

>  <Class>
Phenol ethers

>  <Subclass>
Anisoles

>  <Parent Level 1>
Anisoles

>  <Parent Level 2>


>  <Parent Level 3>


>  <cLogP>
2.618

>  <cLogS>
-2.346

>  <Druglikeness>
-4.7336

>  <NP-class probability>
-

>  <SmilesFragFp 3>


>  <MS_READY_SMILES>
COC1=CC=C(CC=C)C=C1

>  <MS_READY_InChI>
InChI=1S/C10H12O/c1-3-4-9-5-7-10(11-2)8-6-9/h3,5-8H,1,4H2,2H3

>  <QSAR_READY_SMILES>
COC1=CC=C(CC=C)C=C1

>  <QSAR_READY_InChI>
InChI=1S/C10H12O/c1-3-4-9-5-7-10(11-2)8-6-9/h3,5-8H,1,4H2,2H3

>  <DTXSID>
DTXSID0020575

>  <DTXCID>
DTXCID40575

>  <CASRN>
140-67-0

>  <EXPOCAST_MEDIAN_EXPOSURE_PREDICTION_MG/KG-BW/DAY>
3.40E-04

>  <BIOCONCENTRATION_FACTOR_TEST_PRED>
34.914

>  <BOILING_POINT_DEGC_TEST_PRED>
219.588

>  <48HR_DAPHNIA_LC50_MOL/L_TEST_PRED>
3.21E-05

>  <DENSITY_G/CM^3_TEST_PRED>
0.963

>  <DEVTOX_TEST_PRED>
0.672

>  <96HR_FATHEAD_MINNOW_MOL/L_TEST_PRED>
3.01E-05

>  <FLASH_POINT_DEGC_TEST_PRED>
87.975

>  <MELTING_POINT_DEGC_TEST_PRED>
6.03

>  <AMES_MUTAGENICITY_TEST_PRED>
0.021

>  <ORAL_RAT_LD50_MOL/KG_TEST_PRED>
0.00717794

>  <SURFACE_TENSION_DYN/CM_TEST_PRED>
32.857

>  <THERMAL_CONDUCTIVITY_MW/(M*K)_TEST_PRED>
139.164

>  <TETRAHYMENA_PYRIFORMIS_IGC50_MOL/L_TEST_PRED>
0.00038815

>  <VISCOSITY_CP_CP_TEST_PRED>
1.94536

>  <VAPOR_PRESSURE_MMHG_TEST_PRED>
0.116681

>  <WATER_SOLUBILITY_MOL/L_TEST_PRED>
0.00517607

>  <ATMOSPHERIC_HYDROXYLATION_RATE_(AOH)_CM3/MOLECULE*SEC_OPERA_PRED>
7.07E-11

>  <BIOCONCENTRATION_FACTOR_OPERA_PRED>
22.3449

>  <BIODEGRADATION_HALF_LIFE_DAYS_DAYS_OPERA_PRED>
3.53958

>  <BOILING_POINT_DEGC_OPERA_PRED>
215.568

>  <HENRYS_LAW_ATM-M3/MOLE_OPERA_PRED>
9.77E-06

>  <OPERA_KM_DAYS_OPERA_PRED>
1.31698

>  <OCTANOL_AIR_PARTITION_COEFF_LOGKOA_OPERA_PRED>
4.97959

>  <SOIL_ADSORPTION_COEFFICIENT_KOC_L/KG_OPERA_PRED>
1632.39

>  <OCTANOL_WATER_PARTITION_LOGP_OPERA_PRED>
3.0209

>  <MELTING_POINT_DEGC_OPERA_PRED>
-8.09962

>  <VAPOR_PRESSURE_MMHG_OPERA_PRED>
0.173779

>  <WATER_SOLUBILITY_MOL/L_OPERA_PRED>
0.00120565

>  <Shape Index>
0.81818

>  <Molecular Flexibility>
0.54543

>  <Molecular Complexity>
0.6089

>  <Electronegative Atoms>
1

>  <Stereo Centers>
0

>  <Rotatable Bonds>
3

>  <Rings Closures>
1

>  <Aromatic Rings>
1

>  <Aromatic Atoms>
6

>  <Amides>
0

>  <Amines>
0

>  <Aromatic Nitrogens>
0

>  <Shape Index 2>
0.81818

>  <Molecular Flexibility 2>
0.54543

>  <Molecular Complexity 2>
0.6089

>  <Non-C/H Atoms>
1

>  <Electronegative Atoms 2>
1

>  <Stereo Centers 2>
0

>  <Rotatable Bonds 2>
3

>  <Rings Closures 2>
1

>  <Aromatic Rings 2>
1

>  <Aromatic Atoms 2>
6

>  <sp3-Atoms>
3

>  <Amides 2>
0

>  <Amines 2>
0

>  <Aromatic Nitrogens 2>
0

>  <Basic Nitrogens>
0

$$$$
Propoxur
Actelion Java MolfileCreator 2.0

  0  0  0  0  0  0              0 V3000
M  V30 BEGIN CTAB
M  V30 COUNTS 15 15 0 0 0
M  V30 BEGIN ATOM
M  V30 1 O 0.0 0.0 0.0 0
M  V30 2 C -1.3136 -0.7455 0.0 0
M  V30 3 O -1.3254 -2.2367 0.0 0
M  V30 4 N -2.6272 0.0118 0.0 0
M  V30 5 C -0.0355 -2.9705 0.0 0
M  V30 6 C -2.6391 1.5266 0.0 0
M  V30 7 C -0.0473 -4.4616 0.0 0
M  V30 8 C 1.2544 -2.213 0.0 0
M  V30 9 O -1.3609 -5.1954 0.0 0
M  V30 10 C 1.2426 -5.1954 0.0 0
M  V30 11 C 2.5444 -2.9468 0.0 0
M  V30 12 C -2.6746 -4.438 0.0 0
M  V30 13 C 2.5326 -4.438 0.0 0
M  V30 14 C -2.6864 -2.9231 0.0 0
M  V30 15 C -3.9882 -5.1717 0.0 0
M  V30 END ATOM
M  V30 BEGIN BOND
M  V30 1 2 1 2
M  V30 2 1 2 3
M  V30 3 1 2 4
M  V30 4 1 3 5
M  V30 5 1 4 6
M  V30 6 2 5 7
M  V30 7 1 5 8
M  V30 8 1 7 9
M  V30 9 1 7 10
M  V30 10 2 8 11
M  V30 11 1 9 12
M  V30 12 2 10 13
M  V30 13 1 12 14
M  V30 14 1 12 15
M  V30 15 1 11 13
M  V30 END BOND
M  V30 END CTAB
M  END
>  <Molecule Name>
Propoxur

>  <Order (spectra)>
256

>  <NAME>
Propoxur

>  <Molecular Formula>
C11H15NO3

>  <Monoisotopic Mass>
209.105194

>  <SMILES>
CNC(=O)OC1=CC=CC=C1OC(C)C

>  <InChI>
InChI=1S/C11H15NO3/c1-8(2)14-9-6-4-5-7-10(9)15-11(13)12-3/h4-8H,1-3H3,(H,12,13)

>  <InChIKey>
ISRUGXGCCGIOQO-UHFFFAOYSA-N

>  <Kingdom>
Organic compounds

>  <Superclass>
Benzenoids

>  <Class>
Phenol ethers

>  <Subclass>


>  <Parent Level 1>
Phenol ethers

>  <Parent Level 2>


>  <Parent Level 3>


>  <cLogP>
2.0709

>  <cLogS>
-2.791

>  <Druglikeness>
-3.5792

>  <NP-class probability>
0.77

>  <SmilesFragFp 3>


>  <MS_READY_SMILES>
CNC(=O)OC1=CC=CC=C1OC(C)C

>  <MS_READY_InChI>
InChI=1S/C11H15NO3/c1-8(2)14-9-6-4-5-7-10(9)15-11(13)12-3/h4-8H,1-3H3,(H,12,13)

>  <QSAR_READY_SMILES>
CNC(=O)OC1=CC=CC=C1OC(C)C

>  <QSAR_READY_InChI>
InChI=1S/C11H15NO3/c1-8(2)14-9-6-4-5-7-10(9)15-11(13)12-3/h4-8H,1-3H3,(H,12,13)

>  <DTXSID>
DTXSID7021948

>  <DTXCID>
DTXCID301948

>  <CASRN>
114-26-1

>  <EXPOCAST_MEDIAN_EXPOSURE_PREDICTION_MG/KG-BW/DAY>
7.32E-08

>  <BIOCONCENTRATION_FACTOR_TEST_PRED>
4.9545

>  <BOILING_POINT_DEGC_TEST_PRED>
285.351

>  <48HR_DAPHNIA_LC50_MOL/L_TEST_PRED>
4.55E-06

>  <DENSITY_G/CM^3_TEST_PRED>
1.082

>  <DEVTOX_TEST_PRED>
0.684

>  <96HR_FATHEAD_MINNOW_MOL/L_TEST_PRED>
3.78E-05

>  <FLASH_POINT_DEGC_TEST_PRED>
142.63

>  <MELTING_POINT_DEGC_TEST_PRED>
84.049

>  <AMES_MUTAGENICITY_TEST_PRED>
0.614

>  <ORAL_RAT_LD50_MOL/KG_TEST_PRED>
0.000988553

>  <SURFACE_TENSION_DYN/CM_TEST_PRED>
-

>  <THERMAL_CONDUCTIVITY_MW/(M*K)_TEST_PRED>
-

>  <TETRAHYMENA_PYRIFORMIS_IGC50_MOL/L_TEST_PRED>
0.000412098

>  <VISCOSITY_CP_CP_TEST_PRED>
16.1436

>  <VAPOR_PRESSURE_MMHG_TEST_PRED>
3.06E-05

>  <WATER_SOLUBILITY_MOL/L_TEST_PRED>
0.00252348

>  <ATMOSPHERIC_HYDROXYLATION_RATE_(AOH)_CM3/MOLECULE*SEC_OPERA_PRED>
1.51E-11

>  <BIOCONCENTRATION_FACTOR_OPERA_PRED>
8.30227

>  <BIODEGRADATION_HALF_LIFE_DAYS_DAYS_OPERA_PRED>
4.64523

>  <BOILING_POINT_DEGC_OPERA_PRED>
287.594

>  <HENRYS_LAW_ATM-M3/MOLE_OPERA_PRED>
1.42E-09

>  <OPERA_KM_DAYS_OPERA_PRED>
0.0960024

>  <OCTANOL_AIR_PARTITION_COEFF_LOGKOA_OPERA_PRED>
9.21559

>  <SOIL_ADSORPTION_COEFFICIENT_KOC_L/KG_OPERA_PRED>
46.9061

>  <OCTANOL_WATER_PARTITION_LOGP_OPERA_PRED>
1.52408

>  <MELTING_POINT_DEGC_OPERA_PRED>
87.0086

>  <VAPOR_PRESSURE_MMHG_OPERA_PRED>
9.66E-06

>  <WATER_SOLUBILITY_MOL/L_OPERA_PRED>
0.0088806

>  <Shape Index>
0.6

>  <Molecular Flexibility>
0.14015

>  <Molecular Complexity>
0.61868

>  <Electronegative Atoms>
4

>  <Stereo Centers>
0

>  <Rotatable Bonds>
4

>  <Rings Closures>
1

>  <Aromatic Rings>
1

>  <Aromatic Atoms>
6

>  <Amides>
1

>  <Amines>
0

>  <Aromatic Nitrogens>
0

>  <Shape Index 2>
0.6

>  <Molecular Flexibility 2>
0.14015

>  <Molecular Complexity 2>
0.61868

>  <Non-C/H Atoms>
4

>  <Electronegative Atoms 2>
4

>  <Stereo Centers 2>
0

>  <Rotatable Bonds 2>
4

>  <Rings Closures 2>
1

>  <Aromatic Rings 2>
1

>  <Aromatic Atoms 2>
6

>  <sp3-Atoms>
6

>  <Amides 2>
1

>  <Amines 2>
0

>  <Aromatic Nitrogens 2>
0

>  <Basic Nitrogens>
0

$$$$
Kresoxim-methyl
Actelion Java MolfileCreator 2.0

  0  0  0  0  0  0              0 V3000
M  V30 BEGIN CTAB
M  V30 COUNTS 23 24 0 0 0
M  V30 BEGIN ATOM
M  V30 1 O 0.0 0.0 0.0 0
M  V30 2 C -0.0118 1.5154 0.0 0
M  V30 3 O -1.3259 2.2731 0.0 0
M  V30 4 C 1.2786 2.2731 0.0 0
M  V30 5 C -2.6401 1.539 0.0 0
M  V30 6 N 2.5691 1.539 0.0 0
M  V30 7 C 1.2667 3.7885 0.0 0
M  V30 8 O 3.8595 2.2967 0.0 0
M  V30 9 C 2.5572 4.5462 0.0 0
M  V30 10 C -0.0473 4.5462 0.0 0
M  V30 11 C 5.15 1.5627 0.0 0
M  V30 12 C 2.5454 6.0616 0.0 0
M  V30 13 C 3.8477 3.8122 0.0 0
M  V30 14 C -0.0591 6.0616 0.0 0
M  V30 15 C 1.2312 6.8193 0.0 0
M  V30 16 O 5.1382 4.5699 0.0 0
M  V30 17 C 6.4286 3.8358 0.0 0
M  V30 18 C 7.7191 4.5935 0.0 0
M  V30 19 C 6.4168 2.3441 0.0 0
M  V30 20 C 9.0096 3.8595 0.0 0
M  V30 21 C 7.7073 6.109 0.0 0
M  V30 22 C 7.7073 1.6101 0.0 0
M  V30 23 C 8.9977 2.3678 0.0 0
M  V30 END ATOM
M  V30 BEGIN BOND
M  V30 1 2 1 2
M  V30 2 1 2 3
M  V30 3 1 2 4
M  V30 4 1 3 5
M  V30 5 2 4 6
M  V30 6 1 4 7
M  V30 7 1 6 8
M  V30 8 2 7 9
M  V30 9 1 7 10
M  V30 10 1 8 11
M  V30 11 1 9 12
M  V30 12 1 9 13
M  V30 13 2 10 14
M  V30 14 2 12 15
M  V30 15 1 13 16
M  V30 16 1 16 17
M  V30 17 2 17 18
M  V30 18 1 17 19
M  V30 19 1 18 20
M  V30 20 1 18 21
M  V30 21 2 19 22
M  V30 22 2 20 23
M  V30 23 1 14 15
M  V30 24 1 22 23
M  V30 END BOND
M  V30 END CTAB
M  END
>  <Molecule Name>
Kresoxim-methyl

>  <Order (spectra)>
287

>  <NAME>
Kresoxim-methyl

>  <Molecular Formula>
C18H19NO4

>  <Monoisotopic Mass>
313.131409

>  <SMILES>
CO\N=C(\C(=O)OC)C1=C(COC2=C(C)C=CC=C2)C=CC=C1

>  <InChI>
InChI=1S/C18H19NO4/c1-13-8-4-7-11-16(13)23-12-14-9-5-6-10-15(14)17(19-22-3)18(20)21-2/h4-11H,12H2,1-3H3

>  <InChIKey>
ZOTBXTZVPHCKPN-HTXNQAPBSA-N

>  <Kingdom>
Organic compounds

>  <Superclass>
Benzenoids

>  <Class>
Phenol ethers

>  <Subclass>


>  <Parent Level 1>
Phenol ethers

>  <Parent Level 2>


>  <Parent Level 3>


>  <cLogP>
3.1991

>  <cLogS>
-3.967

>  <Druglikeness>
-0.081506

>  <NP-class probability>
0.12

>  <SmilesFragFp 3>


>  <MS_READY_SMILES>
CON=C(C(=O)OC)C1=CC=CC=C1COC1=CC=CC=C1C

>  <MS_READY_InChI>
InChI=1S/C18H19NO4/c1-13-8-4-7-11-16(13)23-12-14-9-5-6-10-15(14)17(19-22-3)18(20)21-2/h4-11H,12H2,1-3H3

>  <QSAR_READY_SMILES>
CON=C(C(=O)OC)C1=CC=CC=C1COC1=CC=CC=C1C

>  <QSAR_READY_InChI>
InChI=1S/C18H19NO4/c1-13-8-4-7-11-16(13)23-12-14-9-5-6-10-15(14)17(19-22-3)18(20)21-2/h4-11H,12H2,1-3H3

>  <DTXSID>
DTXSID2032558

>  <DTXCID>
DTXCID0012558

>  <CASRN>
143390-89-0

>  <EXPOCAST_MEDIAN_EXPOSURE_PREDICTION_MG/KG-BW/DAY>
1.62E-06

>  <BIOCONCENTRATION_FACTOR_TEST_PRED>
75.3356

>  <BOILING_POINT_DEGC_TEST_PRED>
-

>  <48HR_DAPHNIA_LC50_MOL/L_TEST_PRED>
2.44E-06

>  <DENSITY_G/CM^3_TEST_PRED>
-

>  <DEVTOX_TEST_PRED>
0.739

>  <96HR_FATHEAD_MINNOW_MOL/L_TEST_PRED>
-

>  <FLASH_POINT_DEGC_TEST_PRED>
-

>  <MELTING_POINT_DEGC_TEST_PRED>
69.595

>  <AMES_MUTAGENICITY_TEST_PRED>
0.239

>  <ORAL_RAT_LD50_MOL/KG_TEST_PRED>
0.00835603

>  <SURFACE_TENSION_DYN/CM_TEST_PRED>
42.614

>  <THERMAL_CONDUCTIVITY_MW/(M*K)_TEST_PRED>
-

>  <TETRAHYMENA_PYRIFORMIS_IGC50_MOL/L_TEST_PRED>
-

>  <VISCOSITY_CP_CP_TEST_PRED>
-

>  <VAPOR_PRESSURE_MMHG_TEST_PRED>
3.03E-06

>  <WATER_SOLUBILITY_MOL/L_TEST_PRED>
8.61E-05

>  <ATMOSPHERIC_HYDROXYLATION_RATE_(AOH)_CM3/MOLECULE*SEC_OPERA_PRED>
1.38E-11

>  <BIOCONCENTRATION_FACTOR_OPERA_PRED>
336.49

>  <BIODEGRADATION_HALF_LIFE_DAYS_DAYS_OPERA_PRED>
4.48826

>  <BOILING_POINT_DEGC_OPERA_PRED>
364.242

>  <HENRYS_LAW_ATM-M3/MOLE_OPERA_PRED>
1.94E-08

>  <OPERA_KM_DAYS_OPERA_PRED>
0.349303

>  <OCTANOL_AIR_PARTITION_COEFF_LOGKOA_OPERA_PRED>
9.42617

>  <SOIL_ADSORPTION_COEFFICIENT_KOC_L/KG_OPERA_PRED>
1244.76

>  <OCTANOL_WATER_PARTITION_LOGP_OPERA_PRED>
3.39857

>  <MELTING_POINT_DEGC_OPERA_PRED>
98.9114

>  <VAPOR_PRESSURE_MMHG_OPERA_PRED>
1.74E-08

>  <WATER_SOLUBILITY_MOL/L_OPERA_PRED>
6.39E-06

>  <Shape Index>
0.52174

>  <Molecular Flexibility>
0.39286

>  <Molecular Complexity>
0.75107

>  <Electronegative Atoms>
5

>  <Stereo Centers>
0

>  <Rotatable Bonds>
7

>  <Rings Closures>
2

>  <Aromatic Rings>
2

>  <Aromatic Atoms>
12

>  <Amides>
0

>  <Amines>
0

>  <Aromatic Nitrogens>
0

>  <Shape Index 2>
0.52174

>  <Molecular Flexibility 2>
0.39286

>  <Molecular Complexity 2>
0.75107

>  <Non-C/H Atoms>
5

>  <Electronegative Atoms 2>
5

>  <Stereo Centers 2>
0

>  <Rotatable Bonds 2>
7

>  <Rings Closures 2>
2

>  <Aromatic Rings 2>
2

>  <Aromatic Atoms 2>
12

>  <sp3-Atoms>
7

>  <Amides 2>
0

>  <Amines 2>
0

>  <Aromatic Nitrogens 2>
0

>  <Basic Nitrogens>
0

$$$$
Triadimefon
Actelion Java MolfileCreator 2.0

  0  0  0  0  0  0              0 V3000
M  V30 BEGIN CTAB
M  V30 COUNTS 20 21 0 0 0
M  V30 BEGIN ATOM
M  V30 1 Cl 0.0 0.0 0.0 0
M  V30 2 C -1.3066 0.7533 0.0 0
M  V30 3 C -1.3184 2.2601 0.0 0
M  V30 4 C -2.6133 0.0117 0.0 0
M  V30 5 C -2.6251 3.0135 0.0 0
M  V30 6 C -3.92 0.7651 0.0 0
M  V30 7 C -3.9317 2.2719 0.0 0
M  V30 8 O -5.2384 3.0253 0.0 0
M  V30 9 C -6.5451 2.2837 0.0 0 CFG=2
M  V30 10 N -6.5569 0.8004 0.0 0
M  V30 11 C -7.8518 3.0371 0.0 0
M  V30 12 N -7.7811 -0.0706 0.0 0
M  V30 13 C -5.3561 -0.0706 0.0 0
M  V30 14 O -7.8635 4.5439 0.0 0
M  V30 15 C -9.1584 2.2955 0.0 0
M  V30 16 C -7.3338 -1.4832 0.0 0
M  V30 17 N -5.827 -1.4832 0.0 0
M  V30 18 C -8.4286 1.0123 0.0 0
M  V30 19 C -10.4651 1.5656 0.0 0
M  V30 20 C -9.9118 3.6021 0.0 0
M  V30 END ATOM
M  V30 BEGIN BOND
M  V30 1 1 1 2
M  V30 2 2 2 3
M  V30 3 1 2 4
M  V30 4 1 3 5
M  V30 5 2 4 6
M  V30 6 2 5 7
M  V30 7 1 7 8
M  V30 8 1 9 8 CFG=3
M  V30 9 1 9 10
M  V30 10 1 9 11
M  V30 11 1 10 12
M  V30 12 1 10 13
M  V30 13 2 11 14
M  V30 14 1 11 15
M  V30 15 2 12 16
M  V30 16 2 13 17
M  V30 17 1 15 18
M  V30 18 1 15 19
M  V30 19 1 15 20
M  V30 20 1 6 7
M  V30 21 1 16 17
M  V30 END BOND
M  V30 BEGIN COLLECTION
M  V30 MDLV30/STERAC1 ATOMS=(1 9)
M  V30 END COLLECTION
M  V30 END CTAB
M  END
>  <Molecule Name>
Triadimefon

>  <Order (spectra)>
300

>  <NAME>
Triadimefon

>  <Molecular Formula>
C14H16N3O2Cl

>  <Monoisotopic Mass>
293.093104

>  <SMILES>
CC(C)(C)C(=O)C(OC1=CC=C(Cl)C=C1)N1C=NC=N1

>  <InChI>
InChI=1S/C14H16ClN3O2/c1-14(2,3)12(19)13(18-9-16-8-17-18)20-11-6-4-10(15)5-7-11/h4-9,13H,1-3H3/t13-/m0/s1

>  <InChIKey>
WURBVZBTWMNKQT-UHFFFAOYSA-N

>  <Kingdom>
Organic compounds

>  <Superclass>
Benzenoids

>  <Class>
Phenol ethers

>  <Subclass>


>  <Parent Level 1>
Phenol ethers

>  <Parent Level 2>


>  <Parent Level 3>


>  <cLogP>
2.6573

>  <cLogS>
-4.288

>  <Druglikeness>
-2.9907

>  <NP-class probability>
0.03

>  <SmilesFragFp 3>


>  <MS_READY_SMILES>
CC(C)(C)C(=O)C(OC1=CC=C(Cl)C=C1)N1C=NC=N1

>  <MS_READY_InChI>
InChI=1S/C14H16ClN3O2/c1-14(2,3)12(19)13(18-9-16-8-17-18)20-11-6-4-10(15)5-7-11/h4-9,13H,1-3H3/t13-/m0/s1

>  <QSAR_READY_SMILES>
CC(C)(C)C(=O)C(OC1=CC=C(Cl)C=C1)N1C=NC=N1

>  <QSAR_READY_InChI>
InChI=1S/C14H16ClN3O2/c1-14(2,3)12(19)13(18-9-16-8-17-18)20-11-6-4-10(15)5-7-11/h4-9,13H,1-3H3/t13-/m0/s1

>  <DTXSID>
DTXSID3023897

>  <DTXCID>
DTXCID403897

>  <CASRN>
43121-43-3

>  <EXPOCAST_MEDIAN_EXPOSURE_PREDICTION_MG/KG-BW/DAY>
3.60E-07

>  <BIOCONCENTRATION_FACTOR_TEST_PRED>
75.8578

>  <BOILING_POINT_DEGC_TEST_PRED>
332.195

>  <48HR_DAPHNIA_LC50_MOL/L_TEST_PRED>
0.000043451

>  <DENSITY_G/CM^3_TEST_PRED>
1.296

>  <DEVTOX_TEST_PRED>
0.409

>  <96HR_FATHEAD_MINNOW_MOL/L_TEST_PRED>
3.17E-05

>  <FLASH_POINT_DEGC_TEST_PRED>
223.666

>  <MELTING_POINT_DEGC_TEST_PRED>
109.274

>  <AMES_MUTAGENICITY_TEST_PRED>
0.242

>  <ORAL_RAT_LD50_MOL/KG_TEST_PRED>
0.00240436

>  <SURFACE_TENSION_DYN/CM_TEST_PRED>
-

>  <THERMAL_CONDUCTIVITY_MW/(M*K)_TEST_PRED>
-

>  <TETRAHYMENA_PYRIFORMIS_IGC50_MOL/L_TEST_PRED>
-

>  <VISCOSITY_CP_CP_TEST_PRED>
-

>  <VAPOR_PRESSURE_MMHG_TEST_PRED>
8.34E-08

>  <WATER_SOLUBILITY_MOL/L_TEST_PRED>
0.000331894

>  <ATMOSPHERIC_HYDROXYLATION_RATE_(AOH)_CM3/MOLECULE*SEC_OPERA_PRED>
1.37E-11

>  <BIOCONCENTRATION_FACTOR_OPERA_PRED>
102.831

>  <BIODEGRADATION_HALF_LIFE_DAYS_DAYS_OPERA_PRED>
5.32299

>  <BOILING_POINT_DEGC_OPERA_PRED>
350.223

>  <HENRYS_LAW_ATM-M3/MOLE_OPERA_PRED>
6.88E-09

>  <OPERA_KM_DAYS_OPERA_PRED>
0.145412

>  <OCTANOL_AIR_PARTITION_COEFF_LOGKOA_OPERA_PRED>
8.95547

>  <SOIL_ADSORPTION_COEFFICIENT_KOC_L/KG_OPERA_PRED>
513.823

>  <OCTANOL_WATER_PARTITION_LOGP_OPERA_PRED>
2.7706

>  <MELTING_POINT_DEGC_OPERA_PRED>
82.0546

>  <VAPOR_PRESSURE_MMHG_OPERA_PRED>
1.51E-08

>  <WATER_SOLUBILITY_MOL/L_OPERA_PRED>
0.000244986

>  <Shape Index>
0.5

>  <Molecular Flexibility>
0.55021

>  <Molecular Complexity>
0.74025

>  <Electronegative Atoms>
6

>  <Stereo Centers>
1

>  <Rotatable Bonds>
5

>  <Rings Closures>
2

>  <Aromatic Rings>
2

>  <Aromatic Atoms>
11

>  <Amides>
0

>  <Amines>
0

>  <Aromatic Nitrogens>
3

>  <Shape Index 2>
0.5

>  <Molecular Flexibility 2>
0.55021

>  <Molecular Complexity 2>
0.74025

>  <Non-C/H Atoms>
6

>  <Electronegative Atoms 2>
6

>  <Stereo Centers 2>
1

>  <Rotatable Bonds 2>
5

>  <Rings Closures 2>
2

>  <Aromatic Rings 2>
2

>  <Aromatic Atoms 2>
11

>  <sp3-Atoms>
6

>  <Amides 2>
0

>  <Amines 2>
0

>  <Aromatic Nitrogens 2>
3

>  <Basic Nitrogens>
0

$$$$
Triadimenol
Actelion Java MolfileCreator 2.0

  0  0  0  0  0  0              0 V3000
M  V30 BEGIN CTAB
M  V30 COUNTS 20 21 0 0 0
M  V30 BEGIN ATOM
M  V30 1 Cl 0.0 0.0 0.0 0
M  V30 2 C -1.3066 0.7533 0.0 0
M  V30 3 C -1.3184 2.2601 0.0 0
M  V30 4 C -2.6133 0.0117 0.0 0
M  V30 5 C -2.6251 3.0135 0.0 0
M  V30 6 C -3.92 0.7651 0.0 0
M  V30 7 C -3.9317 2.2719 0.0 0
M  V30 8 O -5.2384 3.0253 0.0 0
M  V30 9 C -6.5451 2.2837 0.0 0
M  V30 10 N -6.5569 0.8004 0.0 0
M  V30 11 C -7.8518 3.0371 0.0 0
M  V30 12 N -7.7811 -0.0706 0.0 0
M  V30 13 C -5.3561 -0.0706 0.0 0
M  V30 14 O -7.8635 4.5439 0.0 0
M  V30 15 C -9.1584 2.2955 0.0 0
M  V30 16 C -7.3338 -1.4832 0.0 0
M  V30 17 N -5.827 -1.4832 0.0 0
M  V30 18 C -8.4286 1.0123 0.0 0
M  V30 19 C -10.4651 1.5656 0.0 0
M  V30 20 C -9.9118 3.6021 0.0 0
M  V30 END ATOM
M  V30 BEGIN BOND
M  V30 1 1 1 2
M  V30 2 2 2 3
M  V30 3 1 2 4
M  V30 4 1 3 5
M  V30 5 2 4 6
M  V30 6 2 5 7
M  V30 7 1 7 8
M  V30 8 1 8 9
M  V30 9 1 9 10
M  V30 10 1 9 11
M  V30 11 1 10 12
M  V30 12 1 10 13
M  V30 13 1 11 14
M  V30 14 1 11 15
M  V30 15 2 12 16
M  V30 16 2 13 17
M  V30 17 1 15 18
M  V30 18 1 15 19
M  V30 19 1 15 20
M  V30 20 1 6 7
M  V30 21 1 16 17
M  V30 END BOND
M  V30 END CTAB
M  END
>  <Molecule Name>
Triadimenol

>  <Order (spectra)>
353

>  <NAME>
Triadimenol

>  <Molecular Formula>
C14H18N3O2Cl

>  <Monoisotopic Mass>
295.108754

>  <SMILES>
CC(C)(C)C(O)C(OC1=CC=C(Cl)C=C1)N1C=NC=N1

>  <InChI>
InChI=1S/C14H18ClN3O2/c1-14(2,3)12(19)13(18-9-16-8-17-18)20-11-6-4-10(15)5-7-11/h4-9,12-13,19H,1-3H3

>  <InChIKey>
BAZVSMNPJJMILC-UHFFFAOYSA-N

>  <Kingdom>
Organic compounds

>  <Superclass>
Benzenoids

>  <Class>
Phenol ethers

>  <Subclass>


>  <Parent Level 1>
Phenol ethers

>  <Parent Level 2>


>  <Parent Level 3>


>  <cLogP>
2.6885

>  <cLogS>
-4.237

>  <Druglikeness>
0.15883

>  <NP-class probability>
0.13

>  <SmilesFragFp 3>


>  <MS_READY_SMILES>
CC(C)(C)C(O)C(OC1=CC=C(Cl)C=C1)N1C=NC=N1

>  <MS_READY_InChI>
InChI=1S/C14H18ClN3O2/c1-14(2,3)12(19)13(18-9-16-8-17-18)20-11-6-4-10(15)5-7-11/h4-9,12-13,19H,1-3H3

>  <QSAR_READY_SMILES>
CC(C)(C)C(O)C(OC1=CC=C(Cl)C=C1)N1C=NC=N1

>  <QSAR_READY_InChI>
InChI=1S/C14H18ClN3O2/c1-14(2,3)12(19)13(18-9-16-8-17-18)20-11-6-4-10(15)5-7-11/h4-9,12-13,19H,1-3H3

>  <DTXSID>
DTXSID0032493

>  <DTXCID>
DTXCID8012493

>  <CASRN>
55219-65-3

>  <EXPOCAST_MEDIAN_EXPOSURE_PREDICTION_MG/KG-BW/DAY>
1.38E-06

>  <BIOCONCENTRATION_FACTOR_TEST_PRED>
47.0977

>  <BOILING_POINT_DEGC_TEST_PRED>
339.154

>  <48HR_DAPHNIA_LC50_MOL/L_TEST_PRED>
4.46E-05

>  <DENSITY_G/CM^3_TEST_PRED>
1.293

>  <DEVTOX_TEST_PRED>
0.489

>  <96HR_FATHEAD_MINNOW_MOL/L_TEST_PRED>
3.70E-05

>  <FLASH_POINT_DEGC_TEST_PRED>
232.566

>  <MELTING_POINT_DEGC_TEST_PRED>
122.508

>  <AMES_MUTAGENICITY_TEST_PRED>
0.185

>  <ORAL_RAT_LD50_MOL/KG_TEST_PRED>
0.00688652

>  <SURFACE_TENSION_DYN/CM_TEST_PRED>
-

>  <THERMAL_CONDUCTIVITY_MW/(M*K)_TEST_PRED>
-

>  <TETRAHYMENA_PYRIFORMIS_IGC50_MOL/L_TEST_PRED>
-

>  <VISCOSITY_CP_CP_TEST_PRED>
-

>  <VAPOR_PRESSURE_MMHG_TEST_PRED>
1.58E-07

>  <WATER_SOLUBILITY_MOL/L_TEST_PRED>
0.000267301

>  <ATMOSPHERIC_HYDROXYLATION_RATE_(AOH)_CM3/MOLECULE*SEC_OPERA_PRED>
1.66E-11

>  <BIOCONCENTRATION_FACTOR_OPERA_PRED>
111.055

>  <BIODEGRADATION_HALF_LIFE_DAYS_DAYS_OPERA_PRED>
3.36074

>  <BOILING_POINT_DEGC_OPERA_PRED>
321.572

>  <HENRYS_LAW_ATM-M3/MOLE_OPERA_PRED>
2.97E-08

>  <OPERA_KM_DAYS_OPERA_PRED>
0.998513

>  <OCTANOL_AIR_PARTITION_COEFF_LOGKOA_OPERA_PRED>
10.1809

>  <SOIL_ADSORPTION_COEFFICIENT_KOC_L/KG_OPERA_PRED>
502.024

>  <OCTANOL_WATER_PARTITION_LOGP_OPERA_PRED>
2.90124

>  <MELTING_POINT_DEGC_OPERA_PRED>
124.075

>  <VAPOR_PRESSURE_MMHG_OPERA_PRED>
3.14E-10

>  <WATER_SOLUBILITY_MOL/L_OPERA_PRED>
0.000313439

>  <Shape Index>
0.5

>  <Molecular Flexibility>
0.58681

>  <Molecular Complexity>
0.74025

>  <Electronegative Atoms>
6

>  <Stereo Centers>
2

>  <Rotatable Bonds>
5

>  <Rings Closures>
2

>  <Aromatic Rings>
2

>  <Aromatic Atoms>
11

>  <Amides>
0

>  <Amines>
0

>  <Aromatic Nitrogens>
3

>  <Shape Index 2>
0.5

>  <Molecular Flexibility 2>
0.58681

>  <Molecular Complexity 2>
0.74025

>  <Non-C/H Atoms>
6

>  <Electronegative Atoms 2>
6

>  <Stereo Centers 2>
2

>  <Rotatable Bonds 2>
5

>  <Rings Closures 2>
2

>  <Aromatic Rings 2>
2

>  <Aromatic Atoms 2>
11

>  <sp3-Atoms>
8

>  <Amides 2>
0

>  <Amines 2>
0

>  <Aromatic Nitrogens 2>
3

>  <Basic Nitrogens>
0

$$$$
2-tert-Butyl-4-methoxyphenol
Actelion Java MolfileCreator 2.0

  0  0  0  0  0  0              0 V3000
M  V30 BEGIN CTAB
M  V30 COUNTS 13 13 0 0 0
M  V30 BEGIN ATOM
M  V30 1 O 0.0 0.0 0.0 0
M  V30 2 C 1.2944 -0.7481 0.0 0
M  V30 3 C -1.3181 -0.7481 0.0 0
M  V30 4 C 1.2825 -2.2444 0.0 0
M  V30 5 C 2.5888 0.0118 0.0 0
M  V30 6 C 2.5769 -2.9926 0.0 0
M  V30 7 C 3.8832 -0.7362 0.0 0
M  V30 8 C 3.8713 -2.2325 0.0 0
M  V30 9 C 2.565 -4.4889 0.0 0
M  V30 10 O 5.1658 -2.9807 0.0 0
M  V30 11 C 4.0614 -4.477 0.0 0
M  V30 12 C 2.5532 -5.9852 0.0 0
M  V30 13 C 1.045 -4.477 0.0 0
M  V30 END ATOM
M  V30 BEGIN BOND
M  V30 1 1 1 2
M  V30 2 1 1 3
M  V30 3 2 2 4
M  V30 4 1 2 5
M  V30 5 1 4 6
M  V30 6 2 5 7
M  V30 7 2 6 8
M  V30 8 1 6 9
M  V30 9 1 8 10
M  V30 10 1 9 11
M  V30 11 1 9 12
M  V30 12 1 9 13
M  V30 13 1 7 8
M  V30 END BOND
M  V30 END CTAB
M  END
>  <Molecule Name>
2-tert-Butyl-4-methoxyphenol

>  <Order (spectra)>
28

>  <NAME>
2-tert-Butyl-4-methoxyphenol

>  <Molecular Formula>
C11H16O2

>  <Monoisotopic Mass>
180.11503

>  <SMILES>
COC1=CC=C(O)C(=C1)C(C)(C)C

>  <InChI>
InChI=1S/C11H16O2/c1-11(2,3)9-7-8(13-4)5-6-10(9)12/h5-7,12H,1-4H3

>  <InChIKey>
MRBKEAMVRSLQPH-UHFFFAOYSA-N

>  <Kingdom>
Organic compounds

>  <Superclass>
Benzenoids

>  <Class>
Phenols

>  <Subclass>
Methoxyphenols

>  <Parent Level 1>
Methoxyphenols

>  <Parent Level 2>


>  <Parent Level 3>


>  <cLogP>
2.8258

>  <cLogS>
-2.498

>  <Druglikeness>
-4.9548

>  <NP-class probability>
1

>  <SmilesFragFp 3>


>  <MS_READY_SMILES>
COC1=CC=C(O)C(=C1)C(C)(C)C

>  <MS_READY_InChI>
InChI=1S/C11H16O2/c1-11(2,3)9-7-8(13-4)5-6-10(9)12/h5-7,12H,1-4H3

>  <QSAR_READY_SMILES>
COC1=CC=C(O)C(=C1)C(C)(C)C

>  <QSAR_READY_InChI>
InChI=1S/C11H16O2/c1-11(2,3)9-7-8(13-4)5-6-10(9)12/h5-7,12H,1-4H3

>  <DTXSID>
DTXSID7040788

>  <DTXCID>
DTXCID90215

>  <CASRN>
121-00-6

>  <EXPOCAST_MEDIAN_EXPOSURE_PREDICTION_MG/KG-BW/DAY>
3.81E-05

>  <BIOCONCENTRATION_FACTOR_TEST_PRED>
116.95

>  <BOILING_POINT_DEGC_TEST_PRED>
256.672

>  <48HR_DAPHNIA_LC50_MOL/L_TEST_PRED>
1.59E-05

>  <DENSITY_G/CM^3_TEST_PRED>
1

>  <DEVTOX_TEST_PRED>
0.884

>  <96HR_FATHEAD_MINNOW_MOL/L_TEST_PRED>
5.14E-05

>  <FLASH_POINT_DEGC_TEST_PRED>
104.339

>  <MELTING_POINT_DEGC_TEST_PRED>
56.534

>  <AMES_MUTAGENICITY_TEST_PRED>
0.026

>  <ORAL_RAT_LD50_MOL/KG_TEST_PRED>
0.00879022

>  <SURFACE_TENSION_DYN/CM_TEST_PRED>
33.049

>  <THERMAL_CONDUCTIVITY_MW/(M*K)_TEST_PRED>
130.559

>  <TETRAHYMENA_PYRIFORMIS_IGC50_MOL/L_TEST_PRED>
0.00009977

>  <VISCOSITY_CP_CP_TEST_PRED>
5.02343

>  <VAPOR_PRESSURE_MMHG_TEST_PRED>
0.00897429

>  <WATER_SOLUBILITY_MOL/L_TEST_PRED>
0.000528445

>  <ATMOSPHERIC_HYDROXYLATION_RATE_(AOH)_CM3/MOLECULE*SEC_OPERA_PRED>
1.65E-11

>  <BIOCONCENTRATION_FACTOR_OPERA_PRED>
19.9259

>  <BIODEGRADATION_HALF_LIFE_DAYS_DAYS_OPERA_PRED>
3.7272

>  <BOILING_POINT_DEGC_OPERA_PRED>
250.31

>  <HENRYS_LAW_ATM-M3/MOLE_OPERA_PRED>
4.74E-07

>  <OPERA_KM_DAYS_OPERA_PRED>
0.17512

>  <OCTANOL_AIR_PARTITION_COEFF_LOGKOA_OPERA_PRED>
7.77805

>  <SOIL_ADSORPTION_COEFFICIENT_KOC_L/KG_OPERA_PRED>
3702.77

>  <OCTANOL_WATER_PARTITION_LOGP_OPERA_PRED>
3.20234

>  <MELTING_POINT_DEGC_OPERA_PRED>
55.545

>  <VAPOR_PRESSURE_MMHG_OPERA_PRED>
0.00179273

>  <WATER_SOLUBILITY_MOL/L_OPERA_PRED>
0.00546193

>  <Shape Index>
0.53846

>  <Molecular Flexibility>
0.46391

>  <Molecular Complexity>
0.65854

>  <Electronegative Atoms>
2

>  <Stereo Centers>
0

>  <Rotatable Bonds>
2

>  <Rings Closures>
1

>  <Aromatic Rings>
1

>  <Aromatic Atoms>
6

>  <Amides>
0

>  <Amines>
0

>  <Aromatic Nitrogens>
0

>  <Shape Index 2>
0.53846

>  <Molecular Flexibility 2>
0.46391

>  <Molecular Complexity 2>
0.65854

>  <Non-C/H Atoms>
2

>  <Electronegative Atoms 2>
2

>  <Stereo Centers 2>
0

>  <Rotatable Bonds 2>
2

>  <Rings Closures 2>
1

>  <Aromatic Rings 2>
1

>  <Aromatic Atoms 2>
6

>  <sp3-Atoms>
7

>  <Amides 2>
0

>  <Amines 2>
0

>  <Aromatic Nitrogens 2>
0

>  <Basic Nitrogens>
0

$$$$
2,4,6-Tribromophenol
Actelion Java MolfileCreator 2.0

  0  0  0  0  0  0              0 V3000
M  V30 BEGIN CTAB
M  V30 COUNTS 10 10 0 0 0
M  V30 BEGIN ATOM
M  V30 1 Br 0.0 0.0 0.0 0
M  V30 2 C -1.3091 -0.7312 0.0 0
M  V30 3 C -2.6182 0.0235 0.0 0
M  V30 4 C -1.3209 -2.2172 0.0 0
M  V30 5 O -2.63 1.5332 0.0 0
M  V30 6 C -3.9274 -0.7076 0.0 0
M  V30 7 C -2.63 -2.9485 0.0 0
M  V30 8 Br -5.2365 0.0471 0.0 0
M  V30 9 C -3.9392 -2.1936 0.0 0
M  V30 10 Br -2.6418 -4.4345 0.0 0
M  V30 END ATOM
M  V30 BEGIN BOND
M  V30 1 1 1 2
M  V30 2 2 2 3
M  V30 3 1 2 4
M  V30 4 1 3 5
M  V30 5 1 3 6
M  V30 6 2 4 7
M  V30 7 1 6 8
M  V30 8 2 6 9
M  V30 9 1 7 10
M  V30 10 1 7 9
M  V30 END BOND
M  V30 END CTAB
M  END
>  <Molecule Name>
2,4,6-Tribromophenol

>  <Order (spectra)>
32

>  <NAME>
2,4,6-Tribromophenol

>  <Molecular Formula>
C6H3OBr3

>  <Monoisotopic Mass>
327.773398

>  <SMILES>
OC1=C(Br)C=C(Br)C=C1Br

>  <InChI>
InChI=1S/C6H3Br3O/c7-3-1-4(8)6(10)5(9)2-3/h1-2,10H

>  <InChIKey>
BSWWXRFVMJHFBN-UHFFFAOYSA-N

>  <Kingdom>
Organic compounds

>  <Superclass>
Benzenoids

>  <Class>
Phenols

>  <Subclass>
Halophenols

>  <Parent Level 1>
Bromophenols

>  <Parent Level 2>
P-bromophenols

>  <Parent Level 3>


>  <cLogP>
3.4895

>  <cLogS>
-3.822

>  <Druglikeness>
-4.0621

>  <NP-class probability>
0.96

>  <SmilesFragFp 3>


>  <MS_READY_SMILES>
OC1=C(Br)C=C(Br)C=C1Br

>  <MS_READY_InChI>
InChI=1S/C6H3Br3O/c7-3-1-4(8)6(10)5(9)2-3/h1-2,10H

>  <QSAR_READY_SMILES>
OC1=C(Br)C=C(Br)C=C1Br

>  <QSAR_READY_InChI>
InChI=1S/C6H3Br3O/c7-3-1-4(8)6(10)5(9)2-3/h1-2,10H

>  <DTXSID>
DTXSID6021959

>  <DTXCID>
DTXCID001959

>  <CASRN>
118-79-6

>  <EXPOCAST_MEDIAN_EXPOSURE_PREDICTION_MG/KG-BW/DAY>
4.03E-06

>  <BIOCONCENTRATION_FACTOR_TEST_PRED>
101.625

>  <BOILING_POINT_DEGC_TEST_PRED>
296.803

>  <48HR_DAPHNIA_LC50_MOL/L_TEST_PRED>
1.88E-06

>  <DENSITY_G/CM^3_TEST_PRED>
2.391

>  <DEVTOX_TEST_PRED>
-

>  <96HR_FATHEAD_MINNOW_MOL/L_TEST_PRED>
3.92E-06

>  <FLASH_POINT_DEGC_TEST_PRED>
118.77

>  <MELTING_POINT_DEGC_TEST_PRED>
108.21

>  <AMES_MUTAGENICITY_TEST_PRED>
-0.049

>  <ORAL_RAT_LD50_MOL/KG_TEST_PRED>
0.00100925

>  <SURFACE_TENSION_DYN/CM_TEST_PRED>
42.292

>  <THERMAL_CONDUCTIVITY_MW/(M*K)_TEST_PRED>
118.889

>  <TETRAHYMENA_PYRIFORMIS_IGC50_MOL/L_TEST_PRED>
2.15E-05

>  <VISCOSITY_CP_CP_TEST_PRED>
7.94328

>  <VAPOR_PRESSURE_MMHG_TEST_PRED>
0.000891251

>  <WATER_SOLUBILITY_MOL/L_TEST_PRED>
0.000134277

>  <ATMOSPHERIC_HYDROXYLATION_RATE_(AOH)_CM3/MOLECULE*SEC_OPERA_PRED>
4.69E-12

>  <BIOCONCENTRATION_FACTOR_OPERA_PRED>
513.486

>  <BIODEGRADATION_HALF_LIFE_DAYS_DAYS_OPERA_PRED>
13.7536

>  <BOILING_POINT_DEGC_OPERA_PRED>
285.974

>  <HENRYS_LAW_ATM-M3/MOLE_OPERA_PRED>
1.05E-07

>  <OPERA_KM_DAYS_OPERA_PRED>
0.165673

>  <OCTANOL_AIR_PARTITION_COEFF_LOGKOA_OPERA_PRED>
8.4764

>  <SOIL_ADSORPTION_COEFFICIENT_KOC_L/KG_OPERA_PRED>
5714.43

>  <OCTANOL_WATER_PARTITION_LOGP_OPERA_PRED>
4.13057

>  <MELTING_POINT_DEGC_OPERA_PRED>
95.4392

>  <VAPOR_PRESSURE_MMHG_OPERA_PRED>
0.0220368

>  <WATER_SOLUBILITY_MOL/L_OPERA_PRED>
0.00564117

>  <Shape Index>
0.6

>  <Molecular Flexibility>
0

>  <Molecular Complexity>
0.68024

>  <Electronegative Atoms>
4

>  <Stereo Centers>
0

>  <Rotatable Bonds>
0

>  <Rings Closures>
1

>  <Aromatic Rings>
1

>  <Aromatic Atoms>
6

>  <Amides>
0

>  <Amines>
0

>  <Aromatic Nitrogens>
0

>  <Shape Index 2>
0.6

>  <Molecular Flexibility 2>
0

>  <Molecular Complexity 2>
0.68024

>  <Non-C/H Atoms>
4

>  <Electronegative Atoms 2>
4

>  <Stereo Centers 2>
0

>  <Rotatable Bonds 2>
0

>  <Rings Closures 2>
1

>  <Aromatic Rings 2>
1

>  <Aromatic Atoms 2>
6

>  <sp3-Atoms>
1

>  <Amides 2>
0

>  <Amines 2>
0

>  <Aromatic Nitrogens 2>
0

>  <Basic Nitrogens>
0

$$$$
Eugenol
Actelion Java MolfileCreator 2.0

  0  0  0  0  0  0              0 V3000
M  V30 BEGIN CTAB
M  V30 COUNTS 12 12 0 0 0
M  V30 BEGIN ATOM
M  V30 1 O 0.0 0.0 0.0 0
M  V30 2 C -1.3055 0.7527 0.0 0
M  V30 3 C 1.282 0.7527 0.0 0
M  V30 4 C -1.3173 2.2582 0.0 0
M  V30 5 C -2.6111 0.0235 0.0 0
M  V30 6 O -0.0352 3.011 0.0 0
M  V30 7 C -2.6229 3.011 0.0 0
M  V30 8 C -3.9167 0.7762 0.0 0
M  V30 9 C -3.9284 2.27 0.0 0
M  V30 10 C -5.2222 0.0352 0.0 0
M  V30 11 C -6.5278 0.788 0.0 0
M  V30 12 C -7.8334 0.047 0.0 0
M  V30 END ATOM
M  V30 BEGIN BOND
M  V30 1 1 1 2
M  V30 2 1 1 3
M  V30 3 2 2 4
M  V30 4 1 2 5
M  V30 5 1 4 6
M  V30 6 1 4 7
M  V30 7 2 5 8
M  V30 8 2 7 9
M  V30 9 1 8 10
M  V30 10 1 10 11
M  V30 11 2 11 12
M  V30 12 1 8 9
M  V30 END BOND
M  V30 END CTAB
M  END
>  <Molecule Name>
Eugenol

>  <Order (spectra)>
133

>  <NAME>
Eugenol

>  <Molecular Formula>
C10H12O2

>  <Monoisotopic Mass>
164.08373

>  <SMILES>
COC1=C(O)C=CC(CC=C)=C1

>  <InChI>
InChI=1S/C10H12O2/c1-3-4-8-5-6-9(11)10(7-8)12-2/h3,5-7,11H,1,4H2,2H3

>  <InChIKey>
RRAFCDWBNXTKKO-UHFFFAOYSA-N

>  <Kingdom>
Organic compounds

>  <Superclass>
Benzenoids

>  <Class>
Phenols

>  <Subclass>
Methoxyphenols

>  <Parent Level 1>
Methoxyphenols

>  <Parent Level 2>


>  <Parent Level 3>


>  <cLogP>
2.2723

>  <cLogS>
-2.05

>  <Druglikeness>
-4.6405

>  <NP-class probability>
0.99

>  <SmilesFragFp 3>


>  <MS_READY_SMILES>
COC1=C(O)C=CC(CC=C)=C1

>  <MS_READY_InChI>
InChI=1S/C10H12O2/c1-3-4-8-5-6-9(11)10(7-8)12-2/h3,5-7,11H,1,4H2,2H3

>  <QSAR_READY_SMILES>
COC1=C(O)C=CC(CC=C)=C1

>  <QSAR_READY_InChI>
InChI=1S/C10H12O2/c1-3-4-8-5-6-9(11)10(7-8)12-2/h3,5-7,11H,1,4H2,2H3

>  <DTXSID>
DTXSID9020617

>  <DTXCID>
DTXCID90617

>  <CASRN>
97-53-0

>  <EXPOCAST_MEDIAN_EXPOSURE_PREDICTION_MG/KG-BW/DAY>
9.20E-05

>  <BIOCONCENTRATION_FACTOR_TEST_PRED>
17.6604

>  <BOILING_POINT_DEGC_TEST_PRED>
251.998

>  <48HR_DAPHNIA_LC50_MOL/L_TEST_PRED>
2.45E-05

>  <DENSITY_G/CM^3_TEST_PRED>
1.07

>  <DEVTOX_TEST_PRED>
0.822

>  <96HR_FATHEAD_MINNOW_MOL/L_TEST_PRED>
8.30E-05

>  <FLASH_POINT_DEGC_TEST_PRED>
113.93

>  <MELTING_POINT_DEGC_TEST_PRED>
32.593

>  <AMES_MUTAGENICITY_TEST_PRED>
0.246

>  <ORAL_RAT_LD50_MOL/KG_TEST_PRED>
0.0141906

>  <SURFACE_TENSION_DYN/CM_TEST_PRED>
37.473

>  <THERMAL_CONDUCTIVITY_MW/(M*K)_TEST_PRED>
148.274

>  <TETRAHYMENA_PYRIFORMIS_IGC50_MOL/L_TEST_PRED>
0.000282488

>  <VISCOSITY_CP_CP_TEST_PRED>
5.78096

>  <VAPOR_PRESSURE_MMHG_TEST_PRED>
0.00567545

>  <WATER_SOLUBILITY_MOL/L_TEST_PRED>
0.0102094

>  <ATMOSPHERIC_HYDROXYLATION_RATE_(AOH)_CM3/MOLECULE*SEC_OPERA_PRED>
6.15E-11

>  <BIOCONCENTRATION_FACTOR_OPERA_PRED>
7.08184

>  <BIODEGRADATION_HALF_LIFE_DAYS_DAYS_OPERA_PRED>
3.32808

>  <BOILING_POINT_DEGC_OPERA_PRED>
253.35

>  <HENRYS_LAW_ATM-M3/MOLE_OPERA_PRED>
2.21E-07

>  <OPERA_KM_DAYS_OPERA_PRED>
0.171049

>  <OCTANOL_AIR_PARTITION_COEFF_LOGKOA_OPERA_PRED>
7.71632

>  <SOIL_ADSORPTION_COEFFICIENT_KOC_L/KG_OPERA_PRED>
1850.44

>  <OCTANOL_WATER_PARTITION_LOGP_OPERA_PRED>
2.27242

>  <MELTING_POINT_DEGC_OPERA_PRED>
-8.85146

>  <VAPOR_PRESSURE_MMHG_OPERA_PRED>
0.0223817

>  <WATER_SOLUBILITY_MOL/L_OPERA_PRED>
0.00513607

>  <Shape Index>
0.66667

>  <Molecular Flexibility>
0.44484

>  <Molecular Complexity>
0.652

>  <Electronegative Atoms>
2

>  <Stereo Centers>
0

>  <Rotatable Bonds>
3

>  <Rings Closures>
1

>  <Aromatic Rings>
1

>  <Aromatic Atoms>
6

>  <Amides>
0

>  <Amines>
0

>  <Aromatic Nitrogens>
0

>  <Shape Index 2>
0.66667

>  <Molecular Flexibility 2>
0.44484

>  <Molecular Complexity 2>
0.652

>  <Non-C/H Atoms>
2

>  <Electronegative Atoms 2>
2

>  <Stereo Centers 2>
0

>  <Rotatable Bonds 2>
3

>  <Rings Closures 2>
1

>  <Aromatic Rings 2>
1

>  <Aromatic Atoms 2>
6

>  <sp3-Atoms>
4

>  <Amides 2>
0

>  <Amines 2>
0

>  <Aromatic Nitrogens 2>
0

>  <Basic Nitrogens>
0

$$$$
Isoeugenol
Actelion Java MolfileCreator 2.0

  0  0  0  0  0  0              0 V3000
M  V30 BEGIN CTAB
M  V30 COUNTS 12 12 0 0 0
M  V30 BEGIN ATOM
M  V30 1 O 0.0 0.0 0.0 0
M  V30 2 C -1.3055 0.7527 0.0 0
M  V30 3 C 1.282 0.7527 0.0 0
M  V30 4 C -1.3173 2.2582 0.0 0
M  V30 5 C -2.6111 0.0235 0.0 0
M  V30 6 O -0.0352 3.011 0.0 0
M  V30 7 C -2.6229 3.011 0.0 0
M  V30 8 C -3.9167 0.7762 0.0 0
M  V30 9 C -3.9284 2.27 0.0 0
M  V30 10 C -5.2222 0.0352 0.0 0
M  V30 11 C -6.5278 0.788 0.0 0
M  V30 12 C -7.8334 0.047 0.0 0
M  V30 END ATOM
M  V30 BEGIN BOND
M  V30 1 1 1 2
M  V30 2 1 1 3
M  V30 3 2 2 4
M  V30 4 1 2 5
M  V30 5 1 4 6
M  V30 6 1 4 7
M  V30 7 2 5 8
M  V30 8 2 7 9
M  V30 9 1 8 10
M  V30 10 2 10 11
M  V30 11 1 11 12
M  V30 12 1 8 9
M  V30 END BOND
M  V30 END CTAB
M  END
>  <Molecule Name>
Isoeugenol

>  <Order (spectra)>
134

>  <NAME>
Isoeugenol

>  <Molecular Formula>
C10H12O2

>  <Monoisotopic Mass>
164.08373

>  <SMILES>
COC1=CC(\C=C\C)=CC=C1O

>  <InChI>
InChI=1S/C10H12O2/c1-3-4-8-5-6-9(11)10(7-8)12-2/h3-7,11H,1-2H3

>  <InChIKey>
BJIOGJUNALELMI-ONEGZZNKSA-N

>  <Kingdom>
Organic compounds

>  <Superclass>
Benzenoids

>  <Class>
Phenols

>  <Subclass>
Methoxyphenols

>  <Parent Level 1>
Methoxyphenols

>  <Parent Level 2>


>  <Parent Level 3>


>  <cLogP>
2.3345

>  <cLogS>
-2.246

>  <Druglikeness>
-3.9604

>  <NP-class probability>
1

>  <SmilesFragFp 3>


>  <MS_READY_SMILES>
COC1=CC(C=CC)=CC=C1O

>  <MS_READY_InChI>
InChI=1S/C10H12O2/c1-3-4-8-5-6-9(11)10(7-8)12-2/h3-7,11H,1-2H3

>  <QSAR_READY_SMILES>
COC1=CC(C=CC)=CC=C1O

>  <QSAR_READY_InChI>
InChI=1S/C10H12O2/c1-3-4-8-5-6-9(11)10(7-8)12-2/h3-7,11H,1-2H3

>  <DTXSID>
DTXSID50872350

>  <DTXCID>
DTXCID30197957

>  <CASRN>
5932-68-3

>  <EXPOCAST_MEDIAN_EXPOSURE_PREDICTION_MG/KG-BW/DAY>
4.33E-07

>  <BIOCONCENTRATION_FACTOR_TEST_PRED>
21.1349

>  <BOILING_POINT_DEGC_TEST_PRED>
270.818

>  <48HR_DAPHNIA_LC50_MOL/L_TEST_PRED>
3.50E-05

>  <DENSITY_G/CM^3_TEST_PRED>
1.071

>  <DEVTOX_TEST_PRED>
0.858

>  <96HR_FATHEAD_MINNOW_MOL/L_TEST_PRED>
1.41E-05

>  <FLASH_POINT_DEGC_TEST_PRED>
123.436

>  <MELTING_POINT_DEGC_TEST_PRED>
62.354

>  <AMES_MUTAGENICITY_TEST_PRED>
0.093

>  <ORAL_RAT_LD50_MOL/KG_TEST_PRED>
0.0140281

>  <SURFACE_TENSION_DYN/CM_TEST_PRED>
36.672

>  <THERMAL_CONDUCTIVITY_MW/(M*K)_TEST_PRED>
-

>  <TETRAHYMENA_PYRIFORMIS_IGC50_MOL/L_TEST_PRED>
0.000213304

>  <VISCOSITY_CP_CP_TEST_PRED>
4.74242

>  <VAPOR_PRESSURE_MMHG_TEST_PRED>
0.00578096

>  <WATER_SOLUBILITY_MOL/L_TEST_PRED>
0.00796159

>  <ATMOSPHERIC_HYDROXYLATION_RATE_(AOH)_CM3/MOLECULE*SEC_OPERA_PRED>
3.39E-11

>  <BIOCONCENTRATION_FACTOR_OPERA_PRED>
10.7904

>  <BIODEGRADATION_HALF_LIFE_DAYS_DAYS_OPERA_PRED>
3.32692

>  <BOILING_POINT_DEGC_OPERA_PRED>
266.016

>  <HENRYS_LAW_ATM-M3/MOLE_OPERA_PRED>
2.21E-07

>  <OPERA_KM_DAYS_OPERA_PRED>
0.19553

>  <OCTANOL_AIR_PARTITION_COEFF_LOGKOA_OPERA_PRED>
7.72189

>  <SOIL_ADSORPTION_COEFFICIENT_KOC_L/KG_OPERA_PRED>
1873.23

>  <OCTANOL_WATER_PARTITION_LOGP_OPERA_PRED>
3.03542

>  <MELTING_POINT_DEGC_OPERA_PRED>
11.5903

>  <VAPOR_PRESSURE_MMHG_OPERA_PRED>
0.0119184

>  <WATER_SOLUBILITY_MOL/L_OPERA_PRED>
0.00531236

>  <Shape Index>
0.66667

>  <Molecular Flexibility>
0.27664

>  <Molecular Complexity>
0.652

>  <Electronegative Atoms>
2

>  <Stereo Centers>
0

>  <Rotatable Bonds>
2

>  <Rings Closures>
1

>  <Aromatic Rings>
1

>  <Aromatic Atoms>
6

>  <Amides>
0

>  <Amines>
0

>  <Aromatic Nitrogens>
0

>  <Shape Index 2>
0.66667

>  <Molecular Flexibility 2>
0.27664

>  <Molecular Complexity 2>
0.652

>  <Non-C/H Atoms>
2

>  <Electronegative Atoms 2>
2

>  <Stereo Centers 2>
0

>  <Rotatable Bonds 2>
2

>  <Rings Closures 2>
1

>  <Aromatic Rings 2>
1

>  <Aromatic Atoms 2>
6

>  <sp3-Atoms>
4

>  <Amides 2>
0

>  <Amines 2>
0

>  <Aromatic Nitrogens 2>
0

>  <Basic Nitrogens>
0

$$$$
Retene
Actelion Java MolfileCreator 2.0

  0  0  0  0  0  0              0 V3000
M  V30 BEGIN CTAB
M  V30 COUNTS 18 20 0 0 0
M  V30 BEGIN ATOM
M  V30 1 C 0.0 0.0 0.0 0
M  V30 2 C -1.3105 0.7556 0.0 0
M  V30 3 C -0.0118 -1.4876 0.0 0
M  V30 4 C 1.2869 0.7556 0.0 0
M  V30 5 C -2.6211 0.0236 0.0 0
M  V30 6 C -1.3223 2.2669 0.0 0
M  V30 7 C 1.2751 -2.2197 0.0 0
M  V30 8 C -1.3223 -2.2197 0.0 0
M  V30 9 C 2.5739 0.0236 0.0 0
M  V30 10 C -3.9317 0.7792 0.0 0
M  V30 11 C -2.6329 -1.464 0.0 0
M  V30 12 C -2.6329 3.0226 0.0 0
M  V30 13 C 2.5621 -1.464 0.0 0
M  V30 14 C 1.2633 -3.7074 0.0 0
M  V30 15 C -3.9435 2.2905 0.0 0
M  V30 16 C -5.2541 3.0462 0.0 0
M  V30 17 C -5.2659 4.5575 0.0 0
M  V30 18 C -6.5647 2.3141 0.0 0
M  V30 END ATOM
M  V30 BEGIN BOND
M  V30 1 2 1 2
M  V30 2 1 1 3
M  V30 3 1 1 4
M  V30 4 1 2 5
M  V30 5 1 2 6
M  V30 6 1 3 7
M  V30 7 2 3 8
M  V30 8 2 4 9
M  V30 9 1 5 10
M  V30 10 2 5 11
M  V30 11 2 6 12
M  V30 12 2 7 13
M  V30 13 1 7 14
M  V30 14 2 10 15
M  V30 15 1 15 16
M  V30 16 1 16 17
M  V30 17 1 16 18
M  V30 18 1 8 11
M  V30 19 1 9 13
M  V30 20 1 12 15
M  V30 END BOND
M  V30 END CTAB
M  END
>  <Molecule Name>
Retene

>  <Order (spectra)>
11

>  <NAME>
Retene

>  <Molecular Formula>
C18H18

>  <Monoisotopic Mass>
234.14085

>  <SMILES>
CC(C)C1=CC2=C(C=C1)C1=C(C=C2)C(C)=CC=C1

>  <InChI>
InChI=1S/C18H18/c1-12(2)14-7-10-17-15(11-14)8-9-16-13(3)5-4-6-18(16)17/h4-12H,1-3H3

>  <InChIKey>
NXLOLUFNDSBYTP-UHFFFAOYSA-N

>  <Kingdom>
Organic compounds

>  <Superclass>
Lipids and lipid-like molecules

>  <Class>
Prenol lipids

>  <Subclass>
Diterpenoids

>  <Parent Level 1>
Diterpenoids

>  <Parent Level 2>


>  <Parent Level 3>


>  <cLogP>
5.5793

>  <cLogS>
-6.043

>  <Druglikeness>
-2.5088

>  <NP-class probability>
0.98

>  <SmilesFragFp 3>


>  <MS_READY_SMILES>
CC(C)C1=CC2=C(C=C1)C1=C(C=C2)C(C)=CC=C1

>  <MS_READY_InChI>
InChI=1S/C18H18/c1-12(2)14-7-10-17-15(11-14)8-9-16-13(3)5-4-6-18(16)17/h4-12H,1-3H3

>  <QSAR_READY_SMILES>
CC(C)C1=CC2=C(C=C1)C1=C(C=C2)C(C)=CC=C1

>  <QSAR_READY_InChI>
InChI=1S/C18H18/c1-12(2)14-7-10-17-15(11-14)8-9-16-13(3)5-4-6-18(16)17/h4-12H,1-3H3

>  <DTXSID>
DTXSID7058701

>  <DTXCID>
DTXCID8032388

>  <CASRN>
483-65-8

>  <EXPOCAST_MEDIAN_EXPOSURE_PREDICTION_MG/KG-BW/DAY>
2.46E-06

>  <BIOCONCENTRATION_FACTOR_TEST_PRED>
657.658

>  <BOILING_POINT_DEGC_TEST_PRED>
391.625

>  <48HR_DAPHNIA_LC50_MOL/L_TEST_PRED>
4.80E-07

>  <DENSITY_G/CM^3_TEST_PRED>
1.072

>  <DEVTOX_TEST_PRED>
0.817

>  <96HR_FATHEAD_MINNOW_MOL/L_TEST_PRED>
2.05E-06

>  <FLASH_POINT_DEGC_TEST_PRED>
168.502

>  <MELTING_POINT_DEGC_TEST_PRED>
109.637

>  <AMES_MUTAGENICITY_TEST_PRED>
0.73

>  <ORAL_RAT_LD50_MOL/KG_TEST_PRED>
0.00608135

>  <SURFACE_TENSION_DYN/CM_TEST_PRED>
36.085

>  <THERMAL_CONDUCTIVITY_MW/(M*K)_TEST_PRED>
119.954

>  <TETRAHYMENA_PYRIFORMIS_IGC50_MOL/L_TEST_PRED>
8.61E-06

>  <VISCOSITY_CP_CP_TEST_PRED>
-

>  <VAPOR_PRESSURE_MMHG_TEST_PRED>
1.60E-06

>  <WATER_SOLUBILITY_MOL/L_TEST_PRED>
3.15E-07

>  <ATMOSPHERIC_HYDROXYLATION_RATE_(AOH)_CM3/MOLECULE*SEC_OPERA_PRED>
2.00E-11

>  <BIOCONCENTRATION_FACTOR_OPERA_PRED>
1014.32

>  <BIODEGRADATION_HALF_LIFE_DAYS_DAYS_OPERA_PRED>
27.4953

>  <BOILING_POINT_DEGC_OPERA_PRED>
389.89

>  <HENRYS_LAW_ATM-M3/MOLE_OPERA_PRED>
8.55E-06

>  <OPERA_KM_DAYS_OPERA_PRED>
2.23003

>  <OCTANOL_AIR_PARTITION_COEFF_LOGKOA_OPERA_PRED>
8.53031

>  <SOIL_ADSORPTION_COEFFICIENT_KOC_L/KG_OPERA_PRED>
110914

>  <OCTANOL_WATER_PARTITION_LOGP_OPERA_PRED>
5.54246

>  <MELTING_POINT_DEGC_OPERA_PRED>
101.257

>  <VAPOR_PRESSURE_MMHG_OPERA_PRED>
9.30E-07

>  <WATER_SOLUBILITY_MOL/L_OPERA_PRED>
1.50E-07

>  <Shape Index>
0.55556

>  <Molecular Flexibility>
0.16975

>  <Molecular Complexity>
0.68976

>  <Electronegative Atoms>
0

>  <Stereo Centers>
0

>  <Rotatable Bonds>
1

>  <Rings Closures>
3

>  <Aromatic Rings>
3

>  <Aromatic Atoms>
14

>  <Amides>
0

>  <Amines>
0

>  <Aromatic Nitrogens>
0

>  <Shape Index 2>
0.55556

>  <Molecular Flexibility 2>
0.16975

>  <Molecular Complexity 2>
0.68976

>  <Non-C/H Atoms>
0

>  <Electronegative Atoms 2>
0

>  <Stereo Centers 2>
0

>  <Rotatable Bonds 2>
1

>  <Rings Closures 2>
3

>  <Aromatic Rings 2>
3

>  <Aromatic Atoms 2>
14

>  <sp3-Atoms>
4

>  <Amides 2>
0

>  <Amines 2>
0

>  <Aromatic Nitrogens 2>
0

>  <Basic Nitrogens>
0

$$$$
Enzacamene
Actelion Java MolfileCreator 2.0

  0  0  0  0  0  0              0 V3000
M  V30 BEGIN CTAB
M  V30 COUNTS 19 21 0 0 0
M  V30 BEGIN ATOM
M  V30 1 O 0.0 0.0 0.0 0
M  V30 2 C -0.3115 -1.3681 0.0 0
M  V30 3 C -1.6254 -1.937 0.0 0
M  V30 4 C 0.623 -2.4111 0.0 0
M  V30 5 C -2.8716 -1.2191 0.0 0
M  V30 6 C -1.49 -3.3322 0.0 0
M  V30 7 C -0.0948 -3.6302 0.0 0
M  V30 8 C 1.1513 -4.1178 0.0 0
M  V30 9 C 1.8828 -1.7609 0.0 0
M  V30 10 C -4.1178 -1.9099 0.0 0
M  V30 11 C -0.596 -4.8764 0.0 0
M  V30 12 C -0.149 -5.2828 0.0 0
M  V30 13 C 1.1513 -4.7003 0.0 0
M  V30 14 C -5.364 -1.192 0.0 0
M  V30 15 C -4.1314 -3.3186 0.0 0
M  V30 16 C -6.6102 -1.8828 0.0 0
M  V30 17 C -5.3776 -4.0095 0.0 0
M  V30 18 C -6.6238 -3.2915 0.0 0
M  V30 19 C -7.87 -3.9824 0.0 0
M  V30 END ATOM
M  V30 BEGIN BOND
M  V30 1 2 1 2
M  V30 2 1 2 3
M  V30 3 1 2 4
M  V30 4 2 3 5
M  V30 5 1 3 6
M  V30 6 1 4 7
M  V30 7 1 4 8
M  V30 8 1 4 9
M  V30 9 1 5 10
M  V30 10 1 6 11
M  V30 11 1 7 12
M  V30 12 1 7 13
M  V30 13 2 10 14
M  V30 14 1 10 15
M  V30 15 1 14 16
M  V30 16 2 15 17
M  V30 17 2 16 18
M  V30 18 1 18 19
M  V30 19 1 6 7
M  V30 20 1 8 11
M  V30 21 1 17 18
M  V30 END BOND
M  V30 END CTAB
M  END
>  <Molecule Name>
Enzacamene

>  <Order (spectra)>
37

>  <NAME>
Enzacamene

>  <Molecular Formula>
C18H22O

>  <Monoisotopic Mass>
254.167065

>  <SMILES>
CC1=CC=C(C=C1)/C=C/2\C3CCC(C2=O)(C3(C)C)C

>  <InChI>
InChI=1S/C18H22O/c1-12-5-7-13(8-6-12)11-14-15-9-10-18(4,16(14)19)17(15,2)3/h5-8,11,15H,9-10H2,1-4H3

>  <InChIKey>
HEOCBCNFKCOKBX-SDNWHVSQSA-N

>  <Kingdom>
Organic compounds

>  <Superclass>
Lipids and lipid-like molecules

>  <Class>
Prenol lipids

>  <Subclass>
Monoterpenoids

>  <Parent Level 1>
Bicyclic monoterpenoids

>  <Parent Level 2>


>  <Parent Level 3>


>  <cLogP>
4.2704

>  <cLogS>
-4.19

>  <Druglikeness>
-5.4461

>  <NP-class probability>
0.94

>  <SmilesFragFp 3>


>  <MS_READY_SMILES>
-

>  <MS_READY_InChI>


>  <QSAR_READY_SMILES>
-

>  <QSAR_READY_InChI>


>  <DTXSID>
-

>  <DTXCID>
-

>  <CASRN>
-

>  <EXPOCAST_MEDIAN_EXPOSURE_PREDICTION_MG/KG-BW/DAY>
-

>  <BIOCONCENTRATION_FACTOR_TEST_PRED>
-

>  <BOILING_POINT_DEGC_TEST_PRED>
-

>  <48HR_DAPHNIA_LC50_MOL/L_TEST_PRED>
-

>  <DENSITY_G/CM^3_TEST_PRED>
-

>  <DEVTOX_TEST_PRED>
-

>  <96HR_FATHEAD_MINNOW_MOL/L_TEST_PRED>
-

>  <FLASH_POINT_DEGC_TEST_PRED>
-

>  <MELTING_POINT_DEGC_TEST_PRED>
-

>  <AMES_MUTAGENICITY_TEST_PRED>
-

>  <ORAL_RAT_LD50_MOL/KG_TEST_PRED>
-

>  <SURFACE_TENSION_DYN/CM_TEST_PRED>
-

>  <THERMAL_CONDUCTIVITY_MW/(M*K)_TEST_PRED>
-

>  <TETRAHYMENA_PYRIFORMIS_IGC50_MOL/L_TEST_PRED>
-

>  <VISCOSITY_CP_CP_TEST_PRED>
-

>  <VAPOR_PRESSURE_MMHG_TEST_PRED>
-

>  <WATER_SOLUBILITY_MOL/L_TEST_PRED>
-

>  <ATMOSPHERIC_HYDROXYLATION_RATE_(AOH)_CM3/MOLECULE*SEC_OPERA_PRED>
-

>  <BIOCONCENTRATION_FACTOR_OPERA_PRED>
-

>  <BIODEGRADATION_HALF_LIFE_DAYS_DAYS_OPERA_PRED>
-

>  <BOILING_POINT_DEGC_OPERA_PRED>
-

>  <HENRYS_LAW_ATM-M3/MOLE_OPERA_PRED>
-

>  <OPERA_KM_DAYS_OPERA_PRED>
-

>  <OCTANOL_AIR_PARTITION_COEFF_LOGKOA_OPERA_PRED>
-

>  <SOIL_ADSORPTION_COEFFICIENT_KOC_L/KG_OPERA_PRED>
-

>  <OCTANOL_WATER_PARTITION_LOGP_OPERA_PRED>
-

>  <MELTING_POINT_DEGC_OPERA_PRED>
-

>  <VAPOR_PRESSURE_MMHG_OPERA_PRED>
-

>  <WATER_SOLUBILITY_MOL/L_OPERA_PRED>
-

>  <Shape Index>
0.52632

>  <Molecular Flexibility>
0.27275

>  <Molecular Complexity>
0.80998

>  <Electronegative Atoms>
1

>  <Stereo Centers>
2

>  <Rotatable Bonds>
1

>  <Rings Closures>
3

>  <Aromatic Rings>
1

>  <Aromatic Atoms>
6

>  <Amides>
0

>  <Amines>
0

>  <Aromatic Nitrogens>
0

>  <Shape Index 2>
0.52632

>  <Molecular Flexibility 2>
0.27275

>  <Molecular Complexity 2>
0.80998

>  <Non-C/H Atoms>
1

>  <Electronegative Atoms 2>
1

>  <Stereo Centers 2>
2

>  <Rotatable Bonds 2>
1

>  <Rings Closures 2>
3

>  <Aromatic Rings 2>
1

>  <Aromatic Atoms 2>
6

>  <sp3-Atoms>
9

>  <Amides 2>
0

>  <Amines 2>
0

>  <Aromatic Nitrogens 2>
0

>  <Basic Nitrogens>
0

$$$$
Mirex
Actelion Java MolfileCreator 2.0

  0  0  0  0  0  0              0 V3000
M  V30 BEGIN CTAB
M  V30 COUNTS 22 26 0 0 0
M  V30 BEGIN ATOM
M  V30 1 Cl 0.0 0.0 0.0 0
M  V30 2 C 1.1131 0.3454 0.0 0
M  V30 3 Cl 1.0172 -0.6141 0.0 0
M  V30 4 C 0.5757 1.9384 0.0 0
M  V30 5 C 2.3606 0.7485 0.0 0
M  V30 6 Cl -0.6333 1.2475 0.0 0
M  V30 7 C 1.5354 2.7829 0.0 0
M  V30 8 C -0.1919 2.898 0.0 0
M  V30 9 Cl 3.1475 -0.2303 0.0 0
M  V30 10 C 2.6677 2.0152 0.0 0
M  V30 11 C -0.0959 0.6909 0.0 0
M  V30 12 Cl 2.3798 3.6274 0.0 0
M  V30 13 C 0.7677 3.7233 0.0 0
M  V30 14 Cl -1.3818 3.4354 0.0 0
M  V30 15 Cl 3.8769 1.6697 0.0 0
M  V30 16 C 3.1283 3.493 0.0 0
M  V30 17 Cl -0.9788 -0.2495 0.0 0
M  V30 18 Cl 0.0767 4.8365 0.0 0
M  V30 19 C 2.1495 4.3759 0.0 0
M  V30 20 Cl 4.3567 3.8385 0.0 0
M  V30 21 Cl 2.9364 5.3931 0.0 0
M  V30 22 Cl 1.6697 5.6042 0.0 0
M  V30 END ATOM
M  V30 BEGIN BOND
M  V30 1 1 1 2
M  V30 2 1 2 3
M  V30 3 1 2 4
M  V30 4 1 2 5
M  V30 5 1 4 6
M  V30 6 1 4 7
M  V30 7 1 4 8
M  V30 8 1 5 9
M  V30 9 1 5 10
M  V30 10 1 5 11
M  V30 11 1 7 12
M  V30 12 1 7 13
M  V30 13 1 8 14
M  V30 14 1 10 15
M  V30 15 1 10 16
M  V30 16 1 11 17
M  V30 17 1 13 18
M  V30 18 1 13 19
M  V30 19 1 16 20
M  V30 20 1 19 21
M  V30 21 1 19 22
M  V30 22 1 7 10
M  V30 23 1 8 11
M  V30 24 1 8 13
M  V30 25 1 11 16
M  V30 26 1 16 19
M  V30 END BOND
M  V30 END CTAB
M  END
>  <Molecule Name>
Mirex

>  <Order (spectra)>
44

>  <NAME>
Mirex

>  <Molecular Formula>
C10Cl12

>  <Monoisotopic Mass>
539.626224

>  <SMILES>
ClC12C3(Cl)C4(Cl)C5(Cl)C(Cl)(C1(Cl)C4(Cl)Cl)C2(Cl)C(Cl)(Cl)C35Cl

>  <InChI>
InChI=1S/C10Cl12/c11-1-2(12)7(17)4(14)3(13,5(1,15)9(7,19)20)6(1,16)10(21,22)8(2,4)18

>  <InChIKey>
GVYLCNUFSHDAAW-UHFFFAOYSA-N

>  <Kingdom>
Organic compounds

>  <Superclass>
Lipids and lipid-like molecules

>  <Class>
Prenol lipids

>  <Subclass>
Monoterpenoids

>  <Parent Level 1>
Monoterpenoids

>  <Parent Level 2>


>  <Parent Level 3>


>  <cLogP>
7.9518

>  <cLogS>
-7.246

>  <Druglikeness>
-1.0489

>  <NP-class probability>
0.22

>  <SmilesFragFp 3>


>  <MS_READY_SMILES>
ClC12C3(Cl)C4(Cl)C5(Cl)C(Cl)(C1(Cl)C4(Cl)Cl)C2(Cl)C(Cl)(Cl)C35Cl

>  <MS_READY_InChI>
InChI=1S/C10Cl12/c11-1-2(12)7(17)4(14)3(13,5(1,15)9(7,19)20)6(1,16)10(21,22)8(2,4)18

>  <QSAR_READY_SMILES>
ClC12C3(Cl)C4(Cl)C5(Cl)C(Cl)(C1(Cl)C4(Cl)Cl)C2(Cl)C(Cl)(Cl)C35Cl

>  <QSAR_READY_InChI>
InChI=1S/C10Cl12/c11-1-2(12)7(17)4(14)3(13,5(1,15)9(7,19)20)6(1,16)10(21,22)8(2,4)18

>  <DTXSID>
DTXSID7020895

>  <DTXCID>
DTXCID10895

>  <CASRN>
2385-85-5

>  <EXPOCAST_MEDIAN_EXPOSURE_PREDICTION_MG/KG-BW/DAY>
3.17E-15

>  <BIOCONCENTRATION_FACTOR_TEST_PRED>
-

>  <BOILING_POINT_DEGC_TEST_PRED>
358.388

>  <48HR_DAPHNIA_LC50_MOL/L_TEST_PRED>
5.71E-08

>  <DENSITY_G/CM^3_TEST_PRED>
2.261

>  <DEVTOX_TEST_PRED>
-

>  <96HR_FATHEAD_MINNOW_MOL/L_TEST_PRED>
3.16E-06

>  <FLASH_POINT_DEGC_TEST_PRED>
222.576

>  <MELTING_POINT_DEGC_TEST_PRED>
215.404

>  <AMES_MUTAGENICITY_TEST_PRED>
0.53

>  <ORAL_RAT_LD50_MOL/KG_TEST_PRED>
0.000362243

>  <SURFACE_TENSION_DYN/CM_TEST_PRED>
-

>  <THERMAL_CONDUCTIVITY_MW/(M*K)_TEST_PRED>
-

>  <TETRAHYMENA_PYRIFORMIS_IGC50_MOL/L_TEST_PRED>
-

>  <VISCOSITY_CP_CP_TEST_PRED>
-

>  <VAPOR_PRESSURE_MMHG_TEST_PRED>
4.82E-07

>  <WATER_SOLUBILITY_MOL/L_TEST_PRED>
1.95E-07

>  <ATMOSPHERIC_HYDROXYLATION_RATE_(AOH)_CM3/MOLECULE*SEC_OPERA_PRED>
1.56E-13

>  <BIOCONCENTRATION_FACTOR_OPERA_PRED>
20380

>  <BIODEGRADATION_HALF_LIFE_DAYS_DAYS_OPERA_PRED>
830.283

>  <BOILING_POINT_DEGC_OPERA_PRED>
377.265

>  <HENRYS_LAW_ATM-M3/MOLE_OPERA_PRED>
0.000811514

>  <OPERA_KM_DAYS_OPERA_PRED>
63.1029

>  <OCTANOL_AIR_PARTITION_COEFF_LOGKOA_OPERA_PRED>
11.7145

>  <SOIL_ADSORPTION_COEFFICIENT_KOC_L/KG_OPERA_PRED>
998351

>  <OCTANOL_WATER_PARTITION_LOGP_OPERA_PRED>
6.88879

>  <MELTING_POINT_DEGC_OPERA_PRED>
313.227

>  <VAPOR_PRESSURE_MMHG_OPERA_PRED>
7.92E-07

>  <WATER_SOLUBILITY_MOL/L_OPERA_PRED>
1.55E-07

>  <Shape Index>
0.31818

>  <Molecular Flexibility>
0

>  <Molecular Complexity>
1.1778

>  <Electronegative Atoms>
12

>  <Stereo Centers>
0

>  <Rotatable Bonds>
0

>  <Rings Closures>
5

>  <Aromatic Rings>
0

>  <Aromatic Atoms>
0

>  <Amides>
0

>  <Amines>
0

>  <Aromatic Nitrogens>
0

>  <Shape Index 2>
0.31818

>  <Molecular Flexibility 2>
0

>  <Molecular Complexity 2>
1.1778

>  <Non-C/H Atoms>
12

>  <Electronegative Atoms 2>
12

>  <Stereo Centers 2>
0

>  <Rotatable Bonds 2>
0

>  <Rings Closures 2>
5

>  <Aromatic Rings 2>
0

>  <Aromatic Atoms 2>
0

>  <sp3-Atoms>
10

>  <Amides 2>
0

>  <Amines 2>
0

>  <Aromatic Nitrogens 2>
0

>  <Basic Nitrogens>
0

$$$$
cis-Resmethrin
Actelion Java MolfileCreator 2.0

  0  0  0  0  0  0              0 V3000
M  V30 BEGIN CTAB
M  V30 COUNTS 25 27 0 0 0
M  V30 BEGIN ATOM
M  V30 1 O 0.0 0.0 0.0 0
M  V30 2 C -1.3101 0.7554 0.0 0
M  V30 3 O -2.6203 0.0118 0.0 0
M  V30 4 C -1.3219 2.2662 0.0 0 CFG=2
M  V30 5 C -3.9305 0.7672 0.0 0
M  V30 6 C -0.5783 3.5764 0.0 0
M  V30 7 C -2.0773 3.5764 0.0 0 CFG=2
M  V30 8 C -5.2407 0.0236 0.0 0
M  V30 9 C 0.9088 3.5882 0.0 0
M  V30 10 C 0.1534 4.8866 0.0 0
M  V30 11 C -3.3875 4.3318 0.0 0
M  V30 12 C -6.6217 0.6491 0.0 0
M  V30 13 C -5.4059 -1.4518 0.0 0
M  V30 14 C -3.3993 5.8426 0.0 0
M  V30 15 O -7.6367 -0.4485 0.0 0
M  V30 16 C -6.8813 -1.7469 0.0 0
M  V30 17 C -2.1128 6.598 0.0 0
M  V30 18 C -4.7095 6.598 0.0 0
M  V30 19 C -7.5069 -3.1042 0.0 0
M  V30 20 C -6.6335 -4.3082 0.0 0
M  V30 21 C -7.259 -5.6656 0.0 0
M  V30 22 C -5.158 -4.1429 0.0 0
M  V30 23 C -6.3856 -6.8695 0.0 0
M  V30 24 C -4.2846 -5.3469 0.0 0
M  V30 25 C -4.9102 -6.7043 0.0 0
M  V30 END ATOM
M  V30 BEGIN BOND
M  V30 1 2 1 2
M  V30 2 1 2 3
M  V30 3 1 4 2 CFG=1
M  V30 4 1 3 5
M  V30 5 1 4 6
M  V30 6 1 4 7
M  V30 7 1 5 8
M  V30 8 1 6 9
M  V30 9 1 6 10
M  V30 10 1 7 11 CFG=1
M  V30 11 2 8 12
M  V30 12 1 8 13
M  V30 13 2 11 14
M  V30 14 1 12 15
M  V30 15 2 13 16
M  V30 16 1 14 17
M  V30 17 1 14 18
M  V30 18 1 16 19
M  V30 19 1 19 20
M  V30 20 2 20 21
M  V30 21 1 20 22
M  V30 22 1 21 23
M  V30 23 2 22 24
M  V30 24 2 23 25
M  V30 25 1 6 7
M  V30 26 1 15 16
M  V30 27 1 24 25
M  V30 END BOND
M  V30 BEGIN COLLECTION
M  V30 MDLV30/STEABS ATOMS=(2 4 7)
M  V30 END COLLECTION
M  V30 END CTAB
M  END
>  <Molecule Name>
cis-Resmethrin

>  <Order (spectra)>
74

>  <NAME>
cis-Resmethrin

>  <Molecular Formula>
C22H26O3

>  <Monoisotopic Mass>
338.188195

>  <SMILES>
CC(=C[C@@H]1[C@@H](C1(C)C)C(=O)OCC2=COC(=C2)CC3=CC=CC=C3)C

>  <InChI>
InChI=1S/C22H26O3/c1-15(2)10-19-20(22(19,3)4)21(23)25-14-17-12-18(24-13-17)11-16-8-6-5-7-9-16/h5-10,12-13,19-20H,11,14H2,1-4H3/t19-,20+/m0/s1

>  <InChIKey>
VEMKTZHHVJILDY-WOJBJXKFSA-N

>  <Kingdom>
Organic compounds

>  <Superclass>
Lipids and lipid-like molecules

>  <Class>
Prenol lipids

>  <Subclass>
Monoterpenoids

>  <Parent Level 1>
Aromatic monoterpenoids

>  <Parent Level 2>


>  <Parent Level 3>


>  <cLogP>
5.0027

>  <cLogS>
-4.752

>  <Druglikeness>
0.26409

>  <NP-class probability>
0.79

>  <SmilesFragFp 3>


>  <MS_READY_SMILES>
-

>  <MS_READY_InChI>


>  <QSAR_READY_SMILES>
-

>  <QSAR_READY_InChI>


>  <DTXSID>
-

>  <DTXCID>
-

>  <CASRN>
-

>  <EXPOCAST_MEDIAN_EXPOSURE_PREDICTION_MG/KG-BW/DAY>
-

>  <BIOCONCENTRATION_FACTOR_TEST_PRED>
-

>  <BOILING_POINT_DEGC_TEST_PRED>
-

>  <48HR_DAPHNIA_LC50_MOL/L_TEST_PRED>
-

>  <DENSITY_G/CM^3_TEST_PRED>
-

>  <DEVTOX_TEST_PRED>
-

>  <96HR_FATHEAD_MINNOW_MOL/L_TEST_PRED>
-

>  <FLASH_POINT_DEGC_TEST_PRED>
-

>  <MELTING_POINT_DEGC_TEST_PRED>
-

>  <AMES_MUTAGENICITY_TEST_PRED>
-

>  <ORAL_RAT_LD50_MOL/KG_TEST_PRED>
-

>  <SURFACE_TENSION_DYN/CM_TEST_PRED>
-

>  <THERMAL_CONDUCTIVITY_MW/(M*K)_TEST_PRED>
-

>  <TETRAHYMENA_PYRIFORMIS_IGC50_MOL/L_TEST_PRED>
-

>  <VISCOSITY_CP_CP_TEST_PRED>
-

>  <VAPOR_PRESSURE_MMHG_TEST_PRED>
-

>  <WATER_SOLUBILITY_MOL/L_TEST_PRED>
-

>  <ATMOSPHERIC_HYDROXYLATION_RATE_(AOH)_CM3/MOLECULE*SEC_OPERA_PRED>
-

>  <BIOCONCENTRATION_FACTOR_OPERA_PRED>
-

>  <BIODEGRADATION_HALF_LIFE_DAYS_DAYS_OPERA_PRED>
-

>  <BOILING_POINT_DEGC_OPERA_PRED>
-

>  <HENRYS_LAW_ATM-M3/MOLE_OPERA_PRED>
-

>  <OPERA_KM_DAYS_OPERA_PRED>
-

>  <OCTANOL_AIR_PARTITION_COEFF_LOGKOA_OPERA_PRED>
-

>  <SOIL_ADSORPTION_COEFFICIENT_KOC_L/KG_OPERA_PRED>
-

>  <OCTANOL_WATER_PARTITION_LOGP_OPERA_PRED>
-

>  <MELTING_POINT_DEGC_OPERA_PRED>
-

>  <VAPOR_PRESSURE_MMHG_OPERA_PRED>
-

>  <WATER_SOLUBILITY_MOL/L_OPERA_PRED>
-

>  <Shape Index>
0.64

>  <Molecular Flexibility>
0.4242

>  <Molecular Complexity>
0.74499

>  <Electronegative Atoms>
3

>  <Stereo Centers>
2

>  <Rotatable Bonds>
7

>  <Rings Closures>
3

>  <Aromatic Rings>
2

>  <Aromatic Atoms>
11

>  <Amides>
0

>  <Amines>
0

>  <Aromatic Nitrogens>
0

>  <Shape Index 2>
0.64

>  <Molecular Flexibility 2>
0.4242

>  <Molecular Complexity 2>
0.74499

>  <Non-C/H Atoms>
3

>  <Electronegative Atoms 2>
3

>  <Stereo Centers 2>
2

>  <Rotatable Bonds 2>
7

>  <Rings Closures 2>
3

>  <Aromatic Rings 2>
2

>  <Aromatic Atoms 2>
11

>  <sp3-Atoms>
10

>  <Amides 2>
0

>  <Amines 2>
0

>  <Aromatic Nitrogens 2>
0

>  <Basic Nitrogens>
0

$$$$
trans-Resmethrin
Actelion Java MolfileCreator 2.0

  0  0  0  0  0  0              0 V3000
M  V30 BEGIN CTAB
M  V30 COUNTS 25 27 0 0 0
M  V30 BEGIN ATOM
M  V30 1 O 0.0 0.0 0.0 0
M  V30 2 C -1.3101 0.7554 0.0 0
M  V30 3 O -2.6203 0.0118 0.0 0
M  V30 4 C -1.3219 2.2662 0.0 0 CFG=2
M  V30 5 C -3.9305 0.7672 0.0 0
M  V30 6 C -0.5783 3.5764 0.0 0
M  V30 7 C -2.0773 3.5764 0.0 0 CFG=1
M  V30 8 C -5.2407 0.0236 0.0 0
M  V30 9 C 0.9088 3.5882 0.0 0
M  V30 10 C 0.1534 4.8866 0.0 0
M  V30 11 C -3.3875 4.3318 0.0 0
M  V30 12 C -6.6217 0.6491 0.0 0
M  V30 13 C -5.4059 -1.4518 0.0 0
M  V30 14 C -3.3993 5.8426 0.0 0
M  V30 15 O -7.6367 -0.4485 0.0 0
M  V30 16 C -6.8813 -1.7469 0.0 0
M  V30 17 C -2.1128 6.598 0.0 0
M  V30 18 C -4.7095 6.598 0.0 0
M  V30 19 C -7.5069 -3.1042 0.0 0
M  V30 20 C -6.6335 -4.3082 0.0 0
M  V30 21 C -7.259 -5.6656 0.0 0
M  V30 22 C -5.158 -4.1429 0.0 0
M  V30 23 C -6.3856 -6.8695 0.0 0
M  V30 24 C -4.2846 -5.3469 0.0 0
M  V30 25 C -4.9102 -6.7043 0.0 0
M  V30 END ATOM
M  V30 BEGIN BOND
M  V30 1 2 1 2
M  V30 2 1 2 3
M  V30 3 1 4 2 CFG=1
M  V30 4 1 3 5
M  V30 5 1 4 6
M  V30 6 1 4 7
M  V30 7 1 5 8
M  V30 8 1 6 9
M  V30 9 1 6 10
M  V30 10 1 7 11 CFG=3
M  V30 11 2 8 12
M  V30 12 1 8 13
M  V30 13 2 11 14
M  V30 14 1 12 15
M  V30 15 2 13 16
M  V30 16 1 14 17
M  V30 17 1 14 18
M  V30 18 1 16 19
M  V30 19 1 19 20
M  V30 20 2 20 21
M  V30 21 1 20 22
M  V30 22 1 21 23
M  V30 23 2 22 24
M  V30 24 2 23 25
M  V30 25 1 6 7
M  V30 26 1 15 16
M  V30 27 1 24 25
M  V30 END BOND
M  V30 BEGIN COLLECTION
M  V30 MDLV30/STEABS ATOMS=(2 4 7)
M  V30 END COLLECTION
M  V30 END CTAB
M  END
>  <Molecule Name>
trans-Resmethrin

>  <Order (spectra)>
75

>  <NAME>
trans-Resmethrin

>  <Molecular Formula>
C22H26O3

>  <Monoisotopic Mass>
338.188195

>  <SMILES>
CC(C)=C[C@H]1[C@H](C(=O)OCC2=COC(CC3=CC=CC=C3)=C2)C1(C)C

>  <InChI>
InChI=1S/C22H26O3/c1-15(2)10-19-20(22(19,3)4)21(23)25-14-17-12-18(24-13-17)11-16-8-6-5-7-9-16/h5-10,12-13,19-20H,11,14H2,1-4H3/t19-,20-/m1/s1

>  <InChIKey>
VEMKTZHHVJILDY-VQTJNVASSA-N

>  <Kingdom>
Organic compounds

>  <Superclass>
Lipids and lipid-like molecules

>  <Class>
Prenol lipids

>  <Subclass>
Monoterpenoids

>  <Parent Level 1>
Aromatic monoterpenoids

>  <Parent Level 2>


>  <Parent Level 3>


>  <cLogP>
5.0027

>  <cLogS>
-4.752

>  <Druglikeness>
0.26409

>  <NP-class probability>
0.79

>  <SmilesFragFp 3>


>  <MS_READY_SMILES>
CC(C)=CC1C(C(=O)OCC2=COC(CC3=CC=CC=C3)=C2)C1(C)C

>  <MS_READY_InChI>
InChI=1S/C22H26O3/c1-15(2)10-19-20(22(19,3)4)21(23)25-14-17-12-18(24-13-17)11-16-8-6-5-7-9-16/h5-10,12-13,19-20H,11,14H2,1-4H3

>  <QSAR_READY_SMILES>
CC(C)=CC1C(C(=O)OCC2=COC(CC3=CC=CC=C3)=C2)C1(C)C

>  <QSAR_READY_InChI>
InChI=1S/C22H26O3/c1-15(2)10-19-20(22(19,3)4)21(23)25-14-17-12-18(24-13-17)11-16-8-6-5-7-9-16/h5-10,12-13,19-20H,11,14H2,1-4H3

>  <DTXSID>
DTXSID4091524

>  <DTXCID>
DTXCID80819930

>  <CASRN>
10453-55-1

>  <EXPOCAST_MEDIAN_EXPOSURE_PREDICTION_MG/KG-BW/DAY>
2.20E-06

>  <BIOCONCENTRATION_FACTOR_TEST_PRED>
443.609

>  <BOILING_POINT_DEGC_TEST_PRED>
380.147

>  <48HR_DAPHNIA_LC50_MOL/L_TEST_PRED>
3.85E-08

>  <DENSITY_G/CM^3_TEST_PRED>
1.109

>  <DEVTOX_TEST_PRED>
0.758

>  <96HR_FATHEAD_MINNOW_MOL/L_TEST_PRED>
3.73E-08

>  <FLASH_POINT_DEGC_TEST_PRED>
203.147

>  <MELTING_POINT_DEGC_TEST_PRED>
48.034

>  <AMES_MUTAGENICITY_TEST_PRED>
0.403

>  <ORAL_RAT_LD50_MOL/KG_TEST_PRED>
0.000859014

>  <SURFACE_TENSION_DYN/CM_TEST_PRED>
36.89

>  <THERMAL_CONDUCTIVITY_MW/(M*K)_TEST_PRED>
-

>  <TETRAHYMENA_PYRIFORMIS_IGC50_MOL/L_TEST_PRED>
2.83E-06

>  <VISCOSITY_CP_CP_TEST_PRED>
-

>  <VAPOR_PRESSURE_MMHG_TEST_PRED>
4.17E-08

>  <WATER_SOLUBILITY_MOL/L_TEST_PRED>
3.40E-07

>  <ATMOSPHERIC_HYDROXYLATION_RATE_(AOH)_CM3/MOLECULE*SEC_OPERA_PRED>
6.35E-11

>  <BIOCONCENTRATION_FACTOR_OPERA_PRED>
499.737

>  <BIODEGRADATION_HALF_LIFE_DAYS_DAYS_OPERA_PRED>
3.34955

>  <BOILING_POINT_DEGC_OPERA_PRED>
362.193

>  <HENRYS_LAW_ATM-M3/MOLE_OPERA_PRED>
3.25E-08

>  <OPERA_KM_DAYS_OPERA_PRED>
1.12054

>  <OCTANOL_AIR_PARTITION_COEFF_LOGKOA_OPERA_PRED>
10.1921

>  <SOIL_ADSORPTION_COEFFICIENT_KOC_L/KG_OPERA_PRED>
99728

>  <OCTANOL_WATER_PARTITION_LOGP_OPERA_PRED>
6.13979

>  <MELTING_POINT_DEGC_OPERA_PRED>
44.4208

>  <VAPOR_PRESSURE_MMHG_OPERA_PRED>
1.14E-08

>  <WATER_SOLUBILITY_MOL/L_OPERA_PRED>
2.26E-07

>  <Shape Index>
0.64

>  <Molecular Flexibility>
0.42286

>  <Molecular Complexity>
0.74499

>  <Electronegative Atoms>
3

>  <Stereo Centers>
2

>  <Rotatable Bonds>
7

>  <Rings Closures>
3

>  <Aromatic Rings>
2

>  <Aromatic Atoms>
11

>  <Amides>
0

>  <Amines>
0

>  <Aromatic Nitrogens>
0

>  <Shape Index 2>
0.64

>  <Molecular Flexibility 2>
0.42286

>  <Molecular Complexity 2>
0.74499

>  <Non-C/H Atoms>
3

>  <Electronegative Atoms 2>
3

>  <Stereo Centers 2>
2

>  <Rotatable Bonds 2>
7

>  <Rings Closures 2>
3

>  <Aromatic Rings 2>
2

>  <Aromatic Atoms 2>
11

>  <sp3-Atoms>
10

>  <Amides 2>
0

>  <Amines 2>
0

>  <Aromatic Nitrogens 2>
0

>  <Basic Nitrogens>
0

$$$$
Citral (Geranial)
Actelion Java MolfileCreator 2.0

  0  0  0  0  0  0              0 V3000
M  V30 BEGIN CTAB
M  V30 COUNTS 11 10 0 0 0
M  V30 BEGIN ATOM
M  V30 1 O 0.0 0.0 0.0 0
M  V30 2 C -1.3017 0.7505 0.0 0
M  V30 3 C -2.6034 0.0117 0.0 0
M  V30 4 C -3.9052 0.7622 0.0 0
M  V30 5 C -5.2069 0.0234 0.0 0
M  V30 6 C -3.9169 2.2633 0.0 0
M  V30 7 C -6.5087 0.774 0.0 0
M  V30 8 C -7.8104 0.0351 0.0 0
M  V30 9 C -9.1122 0.7857 0.0 0
M  V30 10 C -9.1239 2.2868 0.0 0
M  V30 11 C -10.4139 0.0469 0.0 0
M  V30 END ATOM
M  V30 BEGIN BOND
M  V30 1 2 1 2
M  V30 2 1 2 3
M  V30 3 2 3 4
M  V30 4 1 4 5
M  V30 5 1 4 6
M  V30 6 1 5 7
M  V30 7 1 7 8
M  V30 8 2 8 9
M  V30 9 1 9 10
M  V30 10 1 9 11
M  V30 END BOND
M  V30 END CTAB
M  END
>  <Molecule Name>
Citral (Geranial)

>  <Order (spectra)>
128

>  <NAME>
Citral (Geranial)

>  <Molecular Formula>
C10H16O

>  <Monoisotopic Mass>
152.120115

>  <SMILES>
CC(C)=CCC\C(C)=C\C=O

>  <InChI>
InChI=1S/C10H16O/c1-9(2)5-4-6-10(3)7-8-11/h5,7-8H,4,6H2,1-3H3

>  <InChIKey>
WTEVQBCEXWBHNA-JXMROGBWSA-N

>  <Kingdom>
Organic compounds

>  <Superclass>
Lipids and lipid-like molecules

>  <Class>
Prenol lipids

>  <Subclass>
Monoterpenoids

>  <Parent Level 1>
Acyclic monoterpenoids

>  <Parent Level 2>


>  <Parent Level 3>


>  <cLogP>
3.273

>  <cLogS>
-2.104

>  <Druglikeness>
-7.3057

>  <NP-class probability>
1

>  <SmilesFragFp 3>


>  <MS_READY_SMILES>
CC(C)=CCCC(C)=CC=O

>  <MS_READY_InChI>
InChI=1S/C10H16O/c1-9(2)5-4-6-10(3)7-8-11/h5,7-8H,4,6H2,1-3H3

>  <QSAR_READY_SMILES>
CC(C)=CCCC(C)=CC=O

>  <QSAR_READY_InChI>
InChI=1S/C10H16O/c1-9(2)5-4-6-10(3)7-8-11/h5,7-8H,4,6H2,1-3H3

>  <DTXSID>
DTXSID20881217

>  <DTXCID>
DTXCID40209373

>  <CASRN>
141-27-5

>  <EXPOCAST_MEDIAN_EXPOSURE_PREDICTION_MG/KG-BW/DAY>
9.40E-05

>  <BIOCONCENTRATION_FACTOR_TEST_PRED>
-

>  <BOILING_POINT_DEGC_TEST_PRED>
-

>  <48HR_DAPHNIA_LC50_MOL/L_TEST_PRED>
-

>  <DENSITY_G/CM^3_TEST_PRED>
-

>  <DEVTOX_TEST_PRED>
-

>  <96HR_FATHEAD_MINNOW_MOL/L_TEST_PRED>
-

>  <FLASH_POINT_DEGC_TEST_PRED>
-

>  <MELTING_POINT_DEGC_TEST_PRED>
-

>  <AMES_MUTAGENICITY_TEST_PRED>
-

>  <ORAL_RAT_LD50_MOL/KG_TEST_PRED>
-

>  <SURFACE_TENSION_DYN/CM_TEST_PRED>
-

>  <THERMAL_CONDUCTIVITY_MW/(M*K)_TEST_PRED>
-

>  <TETRAHYMENA_PYRIFORMIS_IGC50_MOL/L_TEST_PRED>
-

>  <VISCOSITY_CP_CP_TEST_PRED>
-

>  <VAPOR_PRESSURE_MMHG_TEST_PRED>
-

>  <WATER_SOLUBILITY_MOL/L_TEST_PRED>
-

>  <ATMOSPHERIC_HYDROXYLATION_RATE_(AOH)_CM3/MOLECULE*SEC_OPERA_PRED>
1.16E-10

>  <BIOCONCENTRATION_FACTOR_OPERA_PRED>
21.8874

>  <BIODEGRADATION_HALF_LIFE_DAYS_DAYS_OPERA_PRED>
4.51242

>  <BOILING_POINT_DEGC_OPERA_PRED>
228.008

>  <HENRYS_LAW_ATM-M3/MOLE_OPERA_PRED>
5.53E-05

>  <OPERA_KM_DAYS_OPERA_PRED>
0.123944

>  <OCTANOL_AIR_PARTITION_COEFF_LOGKOA_OPERA_PRED>
5.00985

>  <SOIL_ADSORPTION_COEFFICIENT_KOC_L/KG_OPERA_PRED>
91.635

>  <OCTANOL_WATER_PARTITION_LOGP_OPERA_PRED>
2.99753

>  <MELTING_POINT_DEGC_OPERA_PRED>
12.1481

>  <VAPOR_PRESSURE_MMHG_OPERA_PRED>
0.64336

>  <WATER_SOLUBILITY_MOL/L_OPERA_PRED>
0.0086826

>  <Shape Index>
0.81818

>  <Molecular Flexibility>
0.63466

>  <Molecular Complexity>
0.46052

>  <Electronegative Atoms>
1

>  <Stereo Centers>
0

>  <Rotatable Bonds>
4

>  <Rings Closures>
0

>  <Aromatic Rings>
0

>  <Aromatic Atoms>
0

>  <Amides>
0

>  <Amines>
0

>  <Aromatic Nitrogens>
0

>  <Shape Index 2>
0.81818

>  <Molecular Flexibility 2>
0.63466

>  <Molecular Complexity 2>
0.46052

>  <Non-C/H Atoms>
1

>  <Electronegative Atoms 2>
1

>  <Stereo Centers 2>
0

>  <Rotatable Bonds 2>
4

>  <Rings Closures 2>
0

>  <Aromatic Rings 2>
0

>  <Aromatic Atoms 2>
0

>  <sp3-Atoms>
5

>  <Amides 2>
0

>  <Amines 2>
0

>  <Aromatic Nitrogens 2>
0

>  <Basic Nitrogens>
0

$$$$
Camphor
Actelion Java MolfileCreator 2.0

  0  0  0  0  0  0              0 V3000
M  V30 BEGIN CTAB
M  V30 COUNTS 11 12 0 0 0
M  V30 BEGIN ATOM
M  V30 1 O 0.0 0.0 0.0 0
M  V30 2 C -1.1901 -0.6659 0.0 0
M  V30 3 C -2.4369 -0.0991 0.0 0
M  V30 4 C -1.3459 -1.9977 0.0 0
M  V30 5 C -3.3578 -1.0909 0.0 0
M  V30 6 C -4.1796 -0.0991 0.0 0
M  V30 7 C -2.2527 1.2609 0.0 0
M  V30 8 C -2.6919 -2.2669 0.0 0
M  V30 9 C -4.7321 -0.255 0.0 0
M  V30 10 C -4.8738 -1.601 0.0 0
M  V30 11 C -4.3779 -1.8843 0.0 0
M  V30 END ATOM
M  V30 BEGIN BOND
M  V30 1 2 1 2
M  V30 2 1 2 3
M  V30 3 1 2 4
M  V30 4 1 3 5
M  V30 5 1 3 6
M  V30 6 1 3 7
M  V30 7 1 4 8
M  V30 8 1 5 9
M  V30 9 1 5 10
M  V30 10 1 6 11
M  V30 11 1 5 8
M  V30 12 1 8 11
M  V30 END BOND
M  V30 END CTAB
M  END
>  <Molecule Name>
Camphor

>  <Order (spectra)>
143

>  <NAME>
Camphor

>  <Molecular Formula>
C10H16O

>  <Monoisotopic Mass>
152.120115

>  <SMILES>
CC1(C)C2CCC1(C)C(=O)C2

>  <InChI>
InChI=1S/C10H16O/c1-9(2)7-4-5-10(9,3)8(11)6-7/h7H,4-6H2,1-3H3

>  <InChIKey>
DSSYKIVIOFKYAU-UHFFFAOYSA-N

>  <Kingdom>
Organic compounds

>  <Superclass>
Lipids and lipid-like molecules

>  <Class>
Prenol lipids

>  <Subclass>
Monoterpenoids

>  <Parent Level 1>
Bicyclic monoterpenoids

>  <Parent Level 2>


>  <Parent Level 3>


>  <cLogP>
2.1793

>  <cLogS>
-2.452

>  <Druglikeness>
-3.7075

>  <NP-class probability>
0.99

>  <SmilesFragFp 3>


>  <MS_READY_SMILES>
CC1(C)C2CCC1(C)C(=O)C2

>  <MS_READY_InChI>
InChI=1S/C10H16O/c1-9(2)7-4-5-10(9,3)8(11)6-7/h7H,4-6H2,1-3H3

>  <QSAR_READY_SMILES>
CC1(C)C2CCC1(C)C(=O)C2

>  <QSAR_READY_InChI>
InChI=1S/C10H16O/c1-9(2)7-4-5-10(9,3)8(11)6-7/h7H,4-6H2,1-3H3

>  <DTXSID>
DTXSID5030955

>  <DTXCID>
DTXCID3010955

>  <CASRN>
76-22-2

>  <EXPOCAST_MEDIAN_EXPOSURE_PREDICTION_MG/KG-BW/DAY>
1.27E-06

>  <BIOCONCENTRATION_FACTOR_TEST_PRED>
55.7186

>  <BOILING_POINT_DEGC_TEST_PRED>
203.784

>  <48HR_DAPHNIA_LC50_MOL/L_TEST_PRED>
0.000118032

>  <DENSITY_G/CM^3_TEST_PRED>
0.963

>  <DEVTOX_TEST_PRED>
0.94

>  <96HR_FATHEAD_MINNOW_MOL/L_TEST_PRED>
0.000677641

>  <FLASH_POINT_DEGC_TEST_PRED>
65.146

>  <MELTING_POINT_DEGC_TEST_PRED>
140.676

>  <AMES_MUTAGENICITY_TEST_PRED>
-0.018

>  <ORAL_RAT_LD50_MOL/KG_TEST_PRED>
0.00988553

>  <SURFACE_TENSION_DYN/CM_TEST_PRED>
32.681

>  <THERMAL_CONDUCTIVITY_MW/(M*K)_TEST_PRED>
118.555

>  <TETRAHYMENA_PYRIFORMIS_IGC50_MOL/L_TEST_PRED>
0.000545758

>  <VISCOSITY_CP_CP_TEST_PRED>
1.34896

>  <VAPOR_PRESSURE_MMHG_TEST_PRED>
0.214289

>  <WATER_SOLUBILITY_MOL/L_TEST_PRED>
0.0111944

>  <ATMOSPHERIC_HYDROXYLATION_RATE_(AOH)_CM3/MOLECULE*SEC_OPERA_PRED>
1.79E-11

>  <BIOCONCENTRATION_FACTOR_OPERA_PRED>
18.0232

>  <BIODEGRADATION_HALF_LIFE_DAYS_DAYS_OPERA_PRED>
5.39513

>  <BOILING_POINT_DEGC_OPERA_PRED>
199.57

>  <HENRYS_LAW_ATM-M3/MOLE_OPERA_PRED>
0.000079075

>  <OPERA_KM_DAYS_OPERA_PRED>
0.081715

>  <OCTANOL_AIR_PARTITION_COEFF_LOGKOA_OPERA_PRED>
4.84625

>  <SOIL_ADSORPTION_COEFFICIENT_KOC_L/KG_OPERA_PRED>
1852.03

>  <OCTANOL_WATER_PARTITION_LOGP_OPERA_PRED>
2.38432

>  <MELTING_POINT_DEGC_OPERA_PRED>
153.56

>  <VAPOR_PRESSURE_MMHG_OPERA_PRED>
0.650118

>  <WATER_SOLUBILITY_MOL/L_OPERA_PRED>
0.00572767

>  <Shape Index>
0.45455

>  <Molecular Flexibility>
0

>  <Molecular Complexity>
0.74432

>  <Electronegative Atoms>
1

>  <Stereo Centers>
2

>  <Rotatable Bonds>
0

>  <Rings Closures>
2

>  <Aromatic Rings>
0

>  <Aromatic Atoms>
0

>  <Amides>
0

>  <Amines>
0

>  <Aromatic Nitrogens>
0

>  <Shape Index 2>
0.45455

>  <Molecular Flexibility 2>
0

>  <Molecular Complexity 2>
0.74432

>  <Non-C/H Atoms>
1

>  <Electronegative Atoms 2>
1

>  <Stereo Centers 2>
2

>  <Rotatable Bonds 2>
0

>  <Rings Closures 2>
2

>  <Aromatic Rings 2>
0

>  <Aromatic Atoms 2>
0

>  <sp3-Atoms>
9

>  <Amides 2>
0

>  <Amines 2>
0

>  <Aromatic Nitrogens 2>
0

>  <Basic Nitrogens>
0

$$$$
Limonene
Actelion Java MolfileCreator 2.0

  0  0  0  0  0  0              0 V3000
M  V30 BEGIN CTAB
M  V30 COUNTS 10 10 0 0 0
M  V30 BEGIN ATOM
M  V30 1 C 0.0 0.0 0.0 0
M  V30 2 C -0.0117 1.5032 0.0 0
M  V30 3 C -1.3036 -0.7399 0.0 0
M  V30 4 C 1.2801 -0.7399 0.0 0
M  V30 5 C -1.3153 2.2549 0.0 0
M  V30 6 C -2.6072 0.0117 0.0 0
M  V30 7 C -2.619 1.515 0.0 0 CFG=2
M  V30 8 C -3.9226 2.2666 0.0 0
M  V30 9 C -3.9344 3.7699 0.0 0
M  V30 10 C -5.2263 1.5267 0.0 0
M  V30 END ATOM
M  V30 BEGIN BOND
M  V30 1 2 1 2
M  V30 2 1 1 3
M  V30 3 1 1 4
M  V30 4 1 2 5
M  V30 5 1 3 6
M  V30 6 1 5 7
M  V30 7 1 7 8 CFG=3
M  V30 8 2 8 9
M  V30 9 1 8 10
M  V30 10 1 6 7
M  V30 END BOND
M  V30 BEGIN COLLECTION
M  V30 MDLV30/STERAC1 ATOMS=(1 7)
M  V30 END COLLECTION
M  V30 END CTAB
M  END
>  <Molecule Name>
Limonene

>  <Order (spectra)>
146

>  <NAME>
Limonene

>  <Molecular Formula>
C10H16

>  <Monoisotopic Mass>
136.1252

>  <SMILES>
CC(=C)C1CCC(C)=CC1

>  <InChI>
InChI=1S/C10H16/c1-8(2)10-6-4-9(3)5-7-10/h4,10H,1,5-7H2,2-3H3/t10-/m0/s1

>  <InChIKey>
XMGQYMWWDOXHJM-UHFFFAOYSA-N

>  <Kingdom>
Organic compounds

>  <Superclass>
Lipids and lipid-like molecules

>  <Class>
Prenol lipids

>  <Subclass>
Monoterpenoids

>  <Parent Level 1>
Menthane monoterpenoids

>  <Parent Level 2>


>  <Parent Level 3>


>  <cLogP>
3.3614

>  <cLogS>
-2.539

>  <Druglikeness>
-21.855

>  <NP-class probability>
-

>  <SmilesFragFp 3>


>  <MS_READY_SMILES>
CC(=C)C1CCC(C)=CC1

>  <MS_READY_InChI>
InChI=1S/C10H16/c1-8(2)10-6-4-9(3)5-7-10/h4,10H,1,5-7H2,2-3H3/t10-/m0/s1

>  <QSAR_READY_SMILES>
CC(=C)C1CCC(C)=CC1

>  <QSAR_READY_InChI>
InChI=1S/C10H16/c1-8(2)10-6-4-9(3)5-7-10/h4,10H,1,5-7H2,2-3H3/t10-/m0/s1

>  <DTXSID>
DTXSID2029612

>  <DTXCID>
DTXCID209612

>  <CASRN>
138-86-3

>  <EXPOCAST_MEDIAN_EXPOSURE_PREDICTION_MG/KG-BW/DAY>
3.35E-04

>  <BIOCONCENTRATION_FACTOR_TEST_PRED>
523.87

>  <BOILING_POINT_DEGC_TEST_PRED>
170.51

>  <48HR_DAPHNIA_LC50_MOL/L_TEST_PRED>
8.32E-06

>  <DENSITY_G/CM^3_TEST_PRED>
0.84

>  <DEVTOX_TEST_PRED>
0.75

>  <96HR_FATHEAD_MINNOW_MOL/L_TEST_PRED>
9.33E-06

>  <FLASH_POINT_DEGC_TEST_PRED>
47.49

>  <MELTING_POINT_DEGC_TEST_PRED>
-54.53

>  <AMES_MUTAGENICITY_TEST_PRED>
0.27

>  <ORAL_RAT_LD50_MOL/KG_TEST_PRED>
0.0354813

>  <SURFACE_TENSION_DYN/CM_TEST_PRED>
26.36

>  <THERMAL_CONDUCTIVITY_MW/(M*K)_TEST_PRED>
118.65

>  <TETRAHYMENA_PYRIFORMIS_IGC50_MOL/L_TEST_PRED>
0.000131826

>  <VISCOSITY_CP_CP_TEST_PRED>
1.25893

>  <VAPOR_PRESSURE_MMHG_TEST_PRED>
2.5704

>  <WATER_SOLUBILITY_MOL/L_TEST_PRED>
0.000107152

>  <ATMOSPHERIC_HYDROXYLATION_RATE_(AOH)_CM3/MOLECULE*SEC_OPERA_PRED>
1.71E-10

>  <BIOCONCENTRATION_FACTOR_OPERA_PRED>
247.895

>  <BIODEGRADATION_HALF_LIFE_DAYS_DAYS_OPERA_PRED>
2.93262

>  <BOILING_POINT_DEGC_OPERA_PRED>
175.173

>  <HENRYS_LAW_ATM-M3/MOLE_OPERA_PRED>
0.022543

>  <OPERA_KM_DAYS_OPERA_PRED>
4.07303

>  <OCTANOL_AIR_PARTITION_COEFF_LOGKOA_OPERA_PRED>
4.3111

>  <SOIL_ADSORPTION_COEFFICIENT_KOC_L/KG_OPERA_PRED>
2297

>  <OCTANOL_WATER_PARTITION_LOGP_OPERA_PRED>
4.51408

>  <MELTING_POINT_DEGC_OPERA_PRED>
-85.0459

>  <VAPOR_PRESSURE_MMHG_OPERA_PRED>
1.5412

>  <WATER_SOLUBILITY_MOL/L_OPERA_PRED>
9.09E-05

>  <Shape Index>
0.7

>  <Molecular Flexibility>
0.45034

>  <Molecular Complexity>
0.61821

>  <Electronegative Atoms>
0

>  <Stereo Centers>
1

>  <Rotatable Bonds>
1

>  <Rings Closures>
1

>  <Aromatic Rings>
0

>  <Aromatic Atoms>
0

>  <Amides>
0

>  <Amines>
0

>  <Aromatic Nitrogens>
0

>  <Shape Index 2>
0.7

>  <Molecular Flexibility 2>
0.45034

>  <Molecular Complexity 2>
0.61821

>  <Non-C/H Atoms>
0

>  <Electronegative Atoms 2>
0

>  <Stereo Centers 2>
1

>  <Rotatable Bonds 2>
1

>  <Rings Closures 2>
1

>  <Aromatic Rings 2>
0

>  <Aromatic Atoms 2>
0

>  <sp3-Atoms>
6

>  <Amides 2>
0

>  <Amines 2>
0

>  <Aromatic Nitrogens 2>
0

>  <Basic Nitrogens>
0

$$$$
Isomethyl-alpha-ionone
Actelion Java MolfileCreator 2.0

  0  0  0  0  0  0              0 V3000
M  V30 BEGIN CTAB
M  V30 COUNTS 15 15 0 0 0
M  V30 BEGIN ATOM
M  V30 1 O 0.0 0.0 0.0 0
M  V30 2 C -1.3109 0.7676 0.0 0
M  V30 3 C -1.3227 2.2793 0.0 0
M  V30 4 C -2.6218 0.0236 0.0 0
M  V30 5 C -2.6336 3.0352 0.0 0
M  V30 6 C -0.0354 3.0352 0.0 0
M  V30 7 C -3.9445 2.3029 0.0 0 CFG=1
M  V30 8 C -5.2555 3.0588 0.0 0
M  V30 9 C -3.9563 0.8148 0.0 0
M  V30 10 C -6.5664 2.3265 0.0 0
M  V30 11 C -5.2673 4.5705 0.0 0
M  V30 12 C -5.2673 0.0708 0.0 0
M  V30 13 C -3.2241 -0.4724 0.0 0
M  V30 14 C -2.5155 0.9093 0.0 0
M  V30 15 C -6.5782 0.8385 0.0 0
M  V30 END ATOM
M  V30 BEGIN BOND
M  V30 1 2 1 2
M  V30 2 1 2 3
M  V30 3 1 2 4
M  V30 4 2 3 5
M  V30 5 1 3 6
M  V30 6 1 7 5 CFG=3
M  V30 7 1 7 8
M  V30 8 1 7 9
M  V30 9 2 8 10
M  V30 10 1 8 11
M  V30 11 1 9 12
M  V30 12 1 9 13
M  V30 13 1 9 14
M  V30 14 1 10 15
M  V30 15 1 12 15
M  V30 END BOND
M  V30 BEGIN COLLECTION
M  V30 MDLV30/STERAC1 ATOMS=(1 7)
M  V30 END COLLECTION
M  V30 END CTAB
M  END
>  <Molecule Name>
Isomethyl-alpha-ionone

>  <Order (spectra)>
147

>  <NAME>
Isomethyl-alpha-ionone

>  <Molecular Formula>
C14H22O

>  <Monoisotopic Mass>
206.167065

>  <SMILES>
CC1=CCCC(C1/C=C(/C)\C(=O)C)(C)C

>  <InChI>
InChI=1S/C14H22O/c1-10-7-6-8-14(4,5)13(10)9-11(2)12(3)15/h7,9,13H,6,8H2,1-5H3/t13-/m0/s1

>  <InChIKey>
JRJBVWJSTHECJK-LUAWRHEFSA-N

>  <Kingdom>
Organic compounds

>  <Superclass>
Lipids and lipid-like molecules

>  <Class>
Prenol lipids

>  <Subclass>
Sesquiterpenoids

>  <Parent Level 1>
Sesquiterpenoids

>  <Parent Level 2>


>  <Parent Level 3>


>  <cLogP>
3.7513

>  <cLogS>
-2.901

>  <Druglikeness>
-3.3611

>  <NP-class probability>
0.98

>  <SmilesFragFp 3>


>  <MS_READY_SMILES>
-

>  <MS_READY_InChI>


>  <QSAR_READY_SMILES>
-

>  <QSAR_READY_InChI>


>  <DTXSID>
-

>  <DTXCID>
-

>  <CASRN>
-

>  <EXPOCAST_MEDIAN_EXPOSURE_PREDICTION_MG/KG-BW/DAY>
-

>  <BIOCONCENTRATION_FACTOR_TEST_PRED>
-

>  <BOILING_POINT_DEGC_TEST_PRED>
-

>  <48HR_DAPHNIA_LC50_MOL/L_TEST_PRED>
-

>  <DENSITY_G/CM^3_TEST_PRED>
-

>  <DEVTOX_TEST_PRED>
-

>  <96HR_FATHEAD_MINNOW_MOL/L_TEST_PRED>
-

>  <FLASH_POINT_DEGC_TEST_PRED>
-

>  <MELTING_POINT_DEGC_TEST_PRED>
-

>  <AMES_MUTAGENICITY_TEST_PRED>
-

>  <ORAL_RAT_LD50_MOL/KG_TEST_PRED>
-

>  <SURFACE_TENSION_DYN/CM_TEST_PRED>
-

>  <THERMAL_CONDUCTIVITY_MW/(M*K)_TEST_PRED>
-

>  <TETRAHYMENA_PYRIFORMIS_IGC50_MOL/L_TEST_PRED>
-

>  <VISCOSITY_CP_CP_TEST_PRED>
-

>  <VAPOR_PRESSURE_MMHG_TEST_PRED>
-

>  <WATER_SOLUBILITY_MOL/L_TEST_PRED>
-

>  <ATMOSPHERIC_HYDROXYLATION_RATE_(AOH)_CM3/MOLECULE*SEC_OPERA_PRED>
-

>  <BIOCONCENTRATION_FACTOR_OPERA_PRED>
-

>  <BIODEGRADATION_HALF_LIFE_DAYS_DAYS_OPERA_PRED>
-

>  <BOILING_POINT_DEGC_OPERA_PRED>
-

>  <HENRYS_LAW_ATM-M3/MOLE_OPERA_PRED>
-

>  <OPERA_KM_DAYS_OPERA_PRED>
-

>  <OCTANOL_AIR_PARTITION_COEFF_LOGKOA_OPERA_PRED>
-

>  <SOIL_ADSORPTION_COEFFICIENT_KOC_L/KG_OPERA_PRED>
-

>  <OCTANOL_WATER_PARTITION_LOGP_OPERA_PRED>
-

>  <MELTING_POINT_DEGC_OPERA_PRED>
-

>  <VAPOR_PRESSURE_MMHG_OPERA_PRED>
-

>  <WATER_SOLUBILITY_MOL/L_OPERA_PRED>
-

>  <Shape Index>
0.53333

>  <Molecular Flexibility>
0.339

>  <Molecular Complexity>
0.66071

>  <Electronegative Atoms>
1

>  <Stereo Centers>
1

>  <Rotatable Bonds>
2

>  <Rings Closures>
1

>  <Aromatic Rings>
0

>  <Aromatic Atoms>
0

>  <Amides>
0

>  <Amines>
0

>  <Aromatic Nitrogens>
0

>  <Shape Index 2>
0.53333

>  <Molecular Flexibility 2>
0.339

>  <Molecular Complexity 2>
0.66071

>  <Non-C/H Atoms>
1

>  <Electronegative Atoms 2>
1

>  <Stereo Centers 2>
1

>  <Rotatable Bonds 2>
2

>  <Rings Closures 2>
1

>  <Aromatic Rings 2>
0

>  <Aromatic Atoms 2>
0

>  <sp3-Atoms>
9

>  <Amides 2>
0

>  <Amines 2>
0

>  <Aromatic Nitrogens 2>
0

>  <Basic Nitrogens>
0

$$$$
delta-Iraldeine
Actelion Java MolfileCreator 2.0

  0  0  0  0  0  0              0 V3000
M  V30 BEGIN CTAB
M  V30 COUNTS 15 15 0 0 0
M  V30 BEGIN ATOM
M  V30 1 O 0.0 0.0 0.0 0
M  V30 2 C -0.0118 -1.4887 0.0 0
M  V30 3 C -1.3233 -2.2331 0.0 0
M  V30 4 C 1.2761 -2.2331 0.0 0
M  V30 5 C -1.3351 -3.7219 0.0 0
M  V30 6 C -2.6349 -1.4769 0.0 0
M  V30 7 C -2.6467 -4.4663 0.0 0
M  V30 8 C -3.9582 -3.7101 0.0 0
M  V30 9 C -2.6585 -5.9551 0.0 0
M  V30 10 C -5.2698 -4.4545 0.0 0
M  V30 11 C -3.97 -2.1977 0.0 0
M  V30 12 C -3.97 -6.6995 0.0 0
M  V30 13 C -1.9259 -7.243 0.0 0
M  V30 14 C -1.1697 -5.9433 0.0 0
M  V30 15 C -5.2816 -5.9433 0.0 0
M  V30 END ATOM
M  V30 BEGIN BOND
M  V30 1 2 1 2
M  V30 2 1 2 3
M  V30 3 1 2 4
M  V30 4 2 3 5
M  V30 5 1 3 6
M  V30 6 1 5 7
M  V30 7 2 7 8
M  V30 8 1 7 9
M  V30 9 1 8 10
M  V30 10 1 8 11
M  V30 11 1 9 12
M  V30 12 1 9 13
M  V30 13 1 9 14
M  V30 14 1 10 15
M  V30 15 1 12 15
M  V30 END BOND
M  V30 END CTAB
M  END
>  <Molecule Name>
delta-Iraldeine

>  <Order (spectra)>
148

>  <NAME>
delta-Iraldeine

>  <Molecular Formula>
C14H22O

>  <Monoisotopic Mass>
206.167065

>  <SMILES>
CC1=C(C(CCC1)(C)C)/C=C(\C)/C(=O)C

>  <InChI>
InChI=1S/C14H22O/c1-10-7-6-8-14(4,5)13(10)9-11(2)12(3)15/h9H,6-8H2,1-5H3

>  <InChIKey>
NSSHGPBKKVJJMM-PKNBQFBNSA-N

>  <Kingdom>
Organic compounds

>  <Superclass>
Lipids and lipid-like molecules

>  <Class>
Prenol lipids

>  <Subclass>
Sesquiterpenoids

>  <Parent Level 1>
Sesquiterpenoids

>  <Parent Level 2>


>  <Parent Level 3>


>  <cLogP>
3.9222

>  <cLogS>
-2.865

>  <Druglikeness>
-4.3416

>  <NP-class probability>
0.98

>  <SmilesFragFp 3>


>  <MS_READY_SMILES>
-

>  <MS_READY_InChI>


>  <QSAR_READY_SMILES>
-

>  <QSAR_READY_InChI>


>  <DTXSID>
-

>  <DTXCID>
-

>  <CASRN>
-

>  <EXPOCAST_MEDIAN_EXPOSURE_PREDICTION_MG/KG-BW/DAY>
-

>  <BIOCONCENTRATION_FACTOR_TEST_PRED>
-

>  <BOILING_POINT_DEGC_TEST_PRED>
-

>  <48HR_DAPHNIA_LC50_MOL/L_TEST_PRED>
-

>  <DENSITY_G/CM^3_TEST_PRED>
-

>  <DEVTOX_TEST_PRED>
-

>  <96HR_FATHEAD_MINNOW_MOL/L_TEST_PRED>
-

>  <FLASH_POINT_DEGC_TEST_PRED>
-

>  <MELTING_POINT_DEGC_TEST_PRED>
-

>  <AMES_MUTAGENICITY_TEST_PRED>
-

>  <ORAL_RAT_LD50_MOL/KG_TEST_PRED>
-

>  <SURFACE_TENSION_DYN/CM_TEST_PRED>
-

>  <THERMAL_CONDUCTIVITY_MW/(M*K)_TEST_PRED>
-

>  <TETRAHYMENA_PYRIFORMIS_IGC50_MOL/L_TEST_PRED>
-

>  <VISCOSITY_CP_CP_TEST_PRED>
-

>  <VAPOR_PRESSURE_MMHG_TEST_PRED>
-

>  <WATER_SOLUBILITY_MOL/L_TEST_PRED>
-

>  <ATMOSPHERIC_HYDROXYLATION_RATE_(AOH)_CM3/MOLECULE*SEC_OPERA_PRED>
-

>  <BIOCONCENTRATION_FACTOR_OPERA_PRED>
-

>  <BIODEGRADATION_HALF_LIFE_DAYS_DAYS_OPERA_PRED>
-

>  <BOILING_POINT_DEGC_OPERA_PRED>
-

>  <HENRYS_LAW_ATM-M3/MOLE_OPERA_PRED>
-

>  <OPERA_KM_DAYS_OPERA_PRED>
-

>  <OCTANOL_AIR_PARTITION_COEFF_LOGKOA_OPERA_PRED>
-

>  <SOIL_ADSORPTION_COEFFICIENT_KOC_L/KG_OPERA_PRED>
-

>  <OCTANOL_WATER_PARTITION_LOGP_OPERA_PRED>
-

>  <MELTING_POINT_DEGC_OPERA_PRED>
-

>  <VAPOR_PRESSURE_MMHG_OPERA_PRED>
-

>  <WATER_SOLUBILITY_MOL/L_OPERA_PRED>
-

>  <Shape Index>
0.53333

>  <Molecular Flexibility>
0.45202

>  <Molecular Complexity>
0.67019

>  <Electronegative Atoms>
1

>  <Stereo Centers>
0

>  <Rotatable Bonds>
2

>  <Rings Closures>
1

>  <Aromatic Rings>
0

>  <Aromatic Atoms>
0

>  <Amides>
0

>  <Amines>
0

>  <Aromatic Nitrogens>
0

>  <Shape Index 2>
0.53333

>  <Molecular Flexibility 2>
0.45202

>  <Molecular Complexity 2>
0.67019

>  <Non-C/H Atoms>
1

>  <Electronegative Atoms 2>
1

>  <Stereo Centers 2>
0

>  <Rotatable Bonds 2>
2

>  <Rings Closures 2>
1

>  <Aromatic Rings 2>
0

>  <Aromatic Atoms 2>
0

>  <sp3-Atoms>
9

>  <Amides 2>
0

>  <Amines 2>
0

>  <Aromatic Nitrogens 2>
0

>  <Basic Nitrogens>
0

$$$$
Endrin ketone
Actelion Java MolfileCreator 2.0

  0  0  0  0  0  0              0 V3000
M  V30 BEGIN CTAB
M  V30 COUNTS 19 23 0 0 0
M  V30 BEGIN ATOM
M  V30 1 Cl 0.0 0.0 0.0 0
M  V30 2 C -0.0298 -1.4329 0.0 0
M  V30 3 Cl -1.194 -0.5522 0.0 0
M  V30 4 C -0.597 -2.5075 0.0 0
M  V30 5 C 1.1642 -1.597 0.0 0
M  V30 6 Cl -1.7165 -3.0449 0.0 0
M  V30 7 C 0.2686 -3.3583 0.0 0
M  V30 8 C -1.1791 -1.0448 0.0 0
M  V30 9 Cl 2.2538 -1.0597 0.0 0
M  V30 10 C 1.3582 -2.7911 0.0 0
M  V30 11 C 0.2985 -0.2985 0.0 0
M  V30 12 Cl 0.5522 -4.5375 0.0 0
M  V30 13 C -1.4329 -3.4479 0.0 0
M  V30 14 C -1.9403 -2.1941 0.0 0
M  V30 15 Cl 2.4329 -3.3285 0.0 0
M  V30 16 C -1.612 0.2835 0.0 0
M  V30 17 C -3.1941 -1.6418 0.0 0
M  V30 18 C -2.6717 -0.4328 0.0 0
M  V30 19 O -4.433 -1.6866 0.0 0
M  V30 END ATOM
M  V30 BEGIN BOND
M  V30 1 1 1 2
M  V30 2 1 2 3
M  V30 3 1 2 4
M  V30 4 1 2 5
M  V30 5 1 4 6
M  V30 6 1 4 7
M  V30 7 1 4 8
M  V30 8 1 5 9
M  V30 9 1 5 10
M  V30 10 1 5 11
M  V30 11 1 7 12
M  V30 12 1 7 13
M  V30 13 1 8 14
M  V30 14 1 10 15
M  V30 15 1 11 16
M  V30 16 1 13 17
M  V30 17 1 14 18
M  V30 18 2 17 19
M  V30 19 1 7 10
M  V30 20 1 8 11
M  V30 21 1 13 14
M  V30 22 1 16 17
M  V30 23 1 16 18
M  V30 END BOND
M  V30 END CTAB
M  END
>  <Molecule Name>
Endrin ketone

>  <Order (spectra)>
161

>  <NAME>
Endrin ketone

>  <Molecular Formula>
C12H8OCl6

>  <Monoisotopic Mass>
377.870627

>  <SMILES>
C1C2C3C4C1C(=O)C2C5(C3(C(C4(C5Cl)Cl)(Cl)Cl)Cl)Cl

>  <InChI>
InChI=1S/C12H8Cl6O/c13-8-9(14)6-2-1-3(7(6)19)4-5(2)11(9,16)12(17,18)10(4,8)15/h2-6,8H,1H2

>  <InChIKey>
IZHZFAQWVKBTSL-UHFFFAOYSA-N

>  <Kingdom>
Organic compounds

>  <Superclass>
Lipids and lipid-like molecules

>  <Class>
Prenol lipids

>  <Subclass>
Monoterpenoids

>  <Parent Level 1>
Monoterpenoids

>  <Parent Level 2>


>  <Parent Level 3>


>  <cLogP>
4.4958

>  <cLogS>
-5.14

>  <Druglikeness>
0.1175

>  <NP-class probability>
0.08

>  <SmilesFragFp 3>


>  <MS_READY_SMILES>
-

>  <MS_READY_InChI>


>  <QSAR_READY_SMILES>
-

>  <QSAR_READY_InChI>


>  <DTXSID>
-

>  <DTXCID>
-

>  <CASRN>
-

>  <EXPOCAST_MEDIAN_EXPOSURE_PREDICTION_MG/KG-BW/DAY>
-

>  <BIOCONCENTRATION_FACTOR_TEST_PRED>
-

>  <BOILING_POINT_DEGC_TEST_PRED>
-

>  <48HR_DAPHNIA_LC50_MOL/L_TEST_PRED>
-

>  <DENSITY_G/CM^3_TEST_PRED>
-

>  <DEVTOX_TEST_PRED>
-

>  <96HR_FATHEAD_MINNOW_MOL/L_TEST_PRED>
-

>  <FLASH_POINT_DEGC_TEST_PRED>
-

>  <MELTING_POINT_DEGC_TEST_PRED>
-

>  <AMES_MUTAGENICITY_TEST_PRED>
-

>  <ORAL_RAT_LD50_MOL/KG_TEST_PRED>
-

>  <SURFACE_TENSION_DYN/CM_TEST_PRED>
-

>  <THERMAL_CONDUCTIVITY_MW/(M*K)_TEST_PRED>
-

>  <TETRAHYMENA_PYRIFORMIS_IGC50_MOL/L_TEST_PRED>
-

>  <VISCOSITY_CP_CP_TEST_PRED>
-

>  <VAPOR_PRESSURE_MMHG_TEST_PRED>
-

>  <WATER_SOLUBILITY_MOL/L_TEST_PRED>
-

>  <ATMOSPHERIC_HYDROXYLATION_RATE_(AOH)_CM3/MOLECULE*SEC_OPERA_PRED>
-

>  <BIOCONCENTRATION_FACTOR_OPERA_PRED>
-

>  <BIODEGRADATION_HALF_LIFE_DAYS_DAYS_OPERA_PRED>
-

>  <BOILING_POINT_DEGC_OPERA_PRED>
-

>  <HENRYS_LAW_ATM-M3/MOLE_OPERA_PRED>
-

>  <OPERA_KM_DAYS_OPERA_PRED>
-

>  <OCTANOL_AIR_PARTITION_COEFF_LOGKOA_OPERA_PRED>
-

>  <SOIL_ADSORPTION_COEFFICIENT_KOC_L/KG_OPERA_PRED>
-

>  <OCTANOL_WATER_PARTITION_LOGP_OPERA_PRED>
-

>  <MELTING_POINT_DEGC_OPERA_PRED>
-

>  <VAPOR_PRESSURE_MMHG_OPERA_PRED>
-

>  <WATER_SOLUBILITY_MOL/L_OPERA_PRED>
-

>  <Shape Index>
0.36842

>  <Molecular Flexibility>
0

>  <Molecular Complexity>
1.06

>  <Electronegative Atoms>
7

>  <Stereo Centers>
9

>  <Rotatable Bonds>
0

>  <Rings Closures>
5

>  <Aromatic Rings>
0

>  <Aromatic Atoms>
0

>  <Amides>
0

>  <Amines>
0

>  <Aromatic Nitrogens>
0

>  <Shape Index 2>
0.36842

>  <Molecular Flexibility 2>
0

>  <Molecular Complexity 2>
1.06

>  <Non-C/H Atoms>
7

>  <Electronegative Atoms 2>
7

>  <Stereo Centers 2>
9

>  <Rotatable Bonds 2>
0

>  <Rings Closures 2>
5

>  <Aromatic Rings 2>
0

>  <Aromatic Atoms 2>
0

>  <sp3-Atoms>
11

>  <Amides 2>
0

>  <Amines 2>
0

>  <Aromatic Nitrogens 2>
0

>  <Basic Nitrogens>
0

$$$$
Endrin aldehyde
Actelion Java MolfileCreator 2.0

  0  0  0  0  0  0              0 V3000
M  V30 BEGIN CTAB
M  V30 COUNTS 19 23 0 0 0
M  V30 BEGIN ATOM
M  V30 1 Cl 0.0 0.0 0.0 0
M  V30 2 C -0.4743 -0.9866 0.0 0
M  V30 3 Cl -1.3281 -0.1138 0.0 0
M  V30 4 C 0.5692 -1.8025 0.0 0
M  V30 5 C -1.4989 -2.0492 0.0 0
M  V30 6 Cl 1.7456 -1.2522 0.0 0
M  V30 7 C 0.2846 -3.0548 0.0 0
M  V30 8 C -1.8594 -0.9487 0.0 0
M  V30 9 Cl -2.5804 -1.0815 0.0 0
M  V30 10 C -1.0056 -3.2066 0.0 0
M  V30 11 C -2.5425 -3.3584 0.0 0
M  V30 12 Cl 1.5179 -3.4343 0.0 0
M  V30 13 C -0.2656 -4.2312 0.0 0
M  V30 14 C -3.5671 -2.144 0.0 0
M  V30 15 Cl -2.0112 -3.7189 0.0 0
M  V30 16 C -1.8974 -4.4778 0.0 0
M  V30 17 C -4.7245 -1.4799 0.0 0
M  V30 18 C -3.6999 -3.4343 0.0 0
M  V30 19 O -5.8819 -2.1061 0.0 0
M  V30 END ATOM
M  V30 BEGIN BOND
M  V30 1 1 1 2
M  V30 2 1 2 3
M  V30 3 1 2 4
M  V30 4 1 2 5
M  V30 5 1 4 6
M  V30 6 1 4 7
M  V30 7 1 4 8
M  V30 8 1 5 9
M  V30 9 1 5 10
M  V30 10 1 5 11
M  V30 11 1 7 12
M  V30 12 1 7 13
M  V30 13 1 8 14
M  V30 14 1 10 15
M  V30 15 1 11 16
M  V30 16 1 14 17
M  V30 17 1 14 18
M  V30 18 2 17 19
M  V30 19 1 7 10
M  V30 20 1 8 11
M  V30 21 1 10 13
M  V30 22 1 13 16
M  V30 23 1 16 18
M  V30 END BOND
M  V30 END CTAB
M  END
>  <Molecule Name>
Endrin aldehyde

>  <Order (spectra)>
164

>  <NAME>
Endrin aldehyde

>  <Molecular Formula>
C12H8OCl6

>  <Monoisotopic Mass>
377.870627

>  <SMILES>
ClC12C3C4CC(C=O)C5C4C(Cl)(C13Cl)C(Cl)(Cl)C25Cl

>  <InChI>
InChI=1S/C12H8Cl6O/c13-8-5-3(2-19)1-4-6(5)9(14,12(8,17)18)11(16)7(4)10(8,11)15/h2-7H,1H2

>  <InChIKey>
HCTWZIFNBBCVGM-UHFFFAOYSA-N

>  <Kingdom>
Organic compounds

>  <Superclass>
Lipids and lipid-like molecules

>  <Class>
Prenol lipids

>  <Subclass>
Monoterpenoids

>  <Parent Level 1>
Monoterpenoids

>  <Parent Level 2>


>  <Parent Level 3>


>  <cLogP>
4.281

>  <cLogS>
-5.108

>  <Druglikeness>
-4.0721

>  <NP-class probability>
0.19

>  <SmilesFragFp 3>


>  <MS_READY_SMILES>
ClC12C3C4CC(C=O)C5C4C(Cl)(C13Cl)C(Cl)(Cl)C25Cl

>  <MS_READY_InChI>
InChI=1S/C12H8Cl6O/c13-8-5-3(2-19)1-4-6(5)9(14,12(8,17)18)11(16)7(4)10(8,11)15/h2-7H,1H2

>  <QSAR_READY_SMILES>
ClC12C3C4CC(C=O)C5C4C(Cl)(C13Cl)C(Cl)(Cl)C25Cl

>  <QSAR_READY_InChI>
InChI=1S/C12H8Cl6O/c13-8-5-3(2-19)1-4-6(5)9(14,12(8,17)18)11(16)7(4)10(8,11)15/h2-7H,1H2

>  <DTXSID>
DTXSID10860011

>  <DTXCID>
DTXCID10210259

>  <CASRN>
77287-19-5

>  <EXPOCAST_MEDIAN_EXPOSURE_PREDICTION_MG/KG-BW/DAY>
-

>  <BIOCONCENTRATION_FACTOR_TEST_PRED>
-

>  <BOILING_POINT_DEGC_TEST_PRED>
369.798

>  <48HR_DAPHNIA_LC50_MOL/L_TEST_PRED>
5.06E-07

>  <DENSITY_G/CM^3_TEST_PRED>
1.869

>  <DEVTOX_TEST_PRED>
-

>  <96HR_FATHEAD_MINNOW_MOL/L_TEST_PRED>
9.82E-07

>  <FLASH_POINT_DEGC_TEST_PRED>
212.498

>  <MELTING_POINT_DEGC_TEST_PRED>
153.319

>  <AMES_MUTAGENICITY_TEST_PRED>
0.14

>  <ORAL_RAT_LD50_MOL/KG_TEST_PRED>
-

>  <SURFACE_TENSION_DYN/CM_TEST_PRED>
-

>  <THERMAL_CONDUCTIVITY_MW/(M*K)_TEST_PRED>
-

>  <TETRAHYMENA_PYRIFORMIS_IGC50_MOL/L_TEST_PRED>
-

>  <VISCOSITY_CP_CP_TEST_PRED>
-

>  <VAPOR_PRESSURE_MMHG_TEST_PRED>
1.24E-06

>  <WATER_SOLUBILITY_MOL/L_TEST_PRED>
0.000008531

>  <ATMOSPHERIC_HYDROXYLATION_RATE_(AOH)_CM3/MOLECULE*SEC_OPERA_PRED>
1.92E-11

>  <BIOCONCENTRATION_FACTOR_OPERA_PRED>
725.825

>  <BIODEGRADATION_HALF_LIFE_DAYS_DAYS_OPERA_PRED>
519.172

>  <BOILING_POINT_DEGC_OPERA_PRED>
328.162

>  <HENRYS_LAW_ATM-M3/MOLE_OPERA_PRED>
0.000474187

>  <OPERA_KM_DAYS_OPERA_PRED>
14.8576

>  <OCTANOL_AIR_PARTITION_COEFF_LOGKOA_OPERA_PRED>
8.92218

>  <SOIL_ADSORPTION_COEFFICIENT_KOC_L/KG_OPERA_PRED>
83221.9

>  <OCTANOL_WATER_PARTITION_LOGP_OPERA_PRED>
5.55425

>  <MELTING_POINT_DEGC_OPERA_PRED>
190.765

>  <VAPOR_PRESSURE_MMHG_OPERA_PRED>
2.02E-07

>  <WATER_SOLUBILITY_MOL/L_OPERA_PRED>
6.34E-08

>  <Shape Index>
0.42105

>  <Molecular Flexibility>
0.10576

>  <Molecular Complexity>
1.0773

>  <Electronegative Atoms>
7

>  <Stereo Centers>
9

>  <Rotatable Bonds>
1

>  <Rings Closures>
5

>  <Aromatic Rings>
0

>  <Aromatic Atoms>
0

>  <Amides>
0

>  <Amines>
0

>  <Aromatic Nitrogens>
0

>  <Shape Index 2>
0.42105

>  <Molecular Flexibility 2>
0.10576

>  <Molecular Complexity 2>
1.0773

>  <Non-C/H Atoms>
7

>  <Electronegative Atoms 2>
7

>  <Stereo Centers 2>
9

>  <Rotatable Bonds 2>
1

>  <Rings Closures 2>
5

>  <Aromatic Rings 2>
0

>  <Aromatic Atoms 2>
0

>  <sp3-Atoms>
11

>  <Amides 2>
0

>  <Amines 2>
0

>  <Aromatic Nitrogens 2>
0

>  <Basic Nitrogens>
0

$$$$
Endrin
Actelion Java MolfileCreator 2.0

  0  0  0  0  0  0              0 V3000
M  V30 BEGIN CTAB
M  V30 COUNTS 19 23 0 0 0
M  V30 BEGIN ATOM
M  V30 1 Cl 0.0 0.0 0.0 0
M  V30 2 C -1.2193 -0.6757 0.0 0
M  V30 3 C -2.4973 -0.1028 0.0 0
M  V30 4 C -1.3809 -2.0419 0.0 0
M  V30 5 Cl -2.8058 1.2633 0.0 0
M  V30 6 C -3.4375 -1.1164 0.0 0
M  V30 7 Cl -0.1028 -2.5267 0.0 0
M  V30 8 C -2.7471 -2.3211 0.0 0
M  V30 9 C -2.3211 -3.5551 0.0 0
M  V30 10 Cl -4.6862 -0.4847 0.0 0
M  V30 11 C -3.9811 -2.8058 0.0 0
M  V30 12 Cl -3.8636 -3.3494 0.0 0
M  V30 13 Cl -2.7912 -3.8195 0.0 0
M  V30 14 C -2.9234 -5.4061 0.0 0
M  V30 15 C -4.98 -4.4806 0.0 0
M  V30 16 C -3.8636 -6.4197 0.0 0
M  V30 17 C -3.6285 -4.1868 0.0 0
M  V30 18 C -5.1416 -5.8468 0.0 0
M  V30 19 O -4.9947 -7.213 0.0 0
M  V30 END ATOM
M  V30 BEGIN BOND
M  V30 1 1 1 2
M  V30 2 2 2 3
M  V30 3 1 2 4
M  V30 4 1 3 5
M  V30 5 1 3 6
M  V30 6 1 4 7
M  V30 7 1 4 8
M  V30 8 1 4 9
M  V30 9 1 6 10
M  V30 10 1 6 11
M  V30 11 1 8 12
M  V30 12 1 8 13
M  V30 13 1 9 14
M  V30 14 1 11 15
M  V30 15 1 14 16
M  V30 16 1 14 17
M  V30 17 1 15 18
M  V30 18 1 16 19
M  V30 19 1 6 8
M  V30 20 1 9 11
M  V30 21 1 15 17
M  V30 22 1 16 18
M  V30 23 1 18 19
M  V30 END BOND
M  V30 END CTAB
M  END
>  <Molecule Name>
Endrin

>  <Order (spectra)>
165

>  <NAME>
Endrin

>  <Molecular Formula>
C12H8OCl6

>  <Monoisotopic Mass>
377.870627

>  <SMILES>
ClC1=C(Cl)C2(Cl)C3C4CC(C5OC45)C3C1(Cl)C2(Cl)Cl

>  <InChI>
InChI=1S/C12H8Cl6O/c13-8-9(14)11(16)5-3-1-2(6-7(3)19-6)4(5)10(8,15)12(11,17)18/h2-7H,1H2

>  <InChIKey>
DFBKLUNHFCTMDC-UHFFFAOYSA-N

>  <Kingdom>
Organic compounds

>  <Superclass>
Lipids and lipid-like molecules

>  <Class>
Prenol lipids

>  <Subclass>
Monoterpenoids

>  <Parent Level 1>
Monoterpenoids

>  <Parent Level 2>


>  <Parent Level 3>


>  <cLogP>
4.1977

>  <cLogS>
-5.783

>  <Druglikeness>
-0.044038

>  <NP-class probability>
0.95

>  <SmilesFragFp 3>


>  <MS_READY_SMILES>
ClC1=C(Cl)C2(Cl)C3C4CC(C5OC45)C3C1(Cl)C2(Cl)Cl

>  <MS_READY_InChI>
InChI=1S/C12H8Cl6O/c13-8-9(14)11(16)5-3-1-2(6-7(3)19-6)4(5)10(8,15)12(11,17)18/h2-7H,1H2

>  <QSAR_READY_SMILES>
ClC1=C(Cl)C2(Cl)C3C4CC(C5OC45)C3C1(Cl)C2(Cl)Cl

>  <QSAR_READY_InChI>
InChI=1S/C12H8Cl6O/c13-8-9(14)11(16)5-3-1-2(6-7(3)19-6)4(5)10(8,15)12(11,17)18/h2-7H,1H2

>  <DTXSID>
DTXSID3048150

>  <DTXCID>
DTXCID9028124

>  <CASRN>
128-10-9

>  <EXPOCAST_MEDIAN_EXPOSURE_PREDICTION_MG/KG-BW/DAY>
1.36E-07

>  <BIOCONCENTRATION_FACTOR_TEST_PRED>
885.116

>  <BOILING_POINT_DEGC_TEST_PRED>
384.804

>  <48HR_DAPHNIA_LC50_MOL/L_TEST_PRED>
4.22E-07

>  <DENSITY_G/CM^3_TEST_PRED>
1.842

>  <DEVTOX_TEST_PRED>
0.55

>  <96HR_FATHEAD_MINNOW_MOL/L_TEST_PRED>
6.55E-08

>  <FLASH_POINT_DEGC_TEST_PRED>
176.016

>  <MELTING_POINT_DEGC_TEST_PRED>
173.786

>  <AMES_MUTAGENICITY_TEST_PRED>
0.019

>  <ORAL_RAT_LD50_MOL/KG_TEST_PRED>
2.84E-05

>  <SURFACE_TENSION_DYN/CM_TEST_PRED>
-

>  <THERMAL_CONDUCTIVITY_MW/(M*K)_TEST_PRED>
-

>  <TETRAHYMENA_PYRIFORMIS_IGC50_MOL/L_TEST_PRED>
-

>  <VISCOSITY_CP_CP_TEST_PRED>
-

>  <VAPOR_PRESSURE_MMHG_TEST_PRED>
2.24E-06

>  <WATER_SOLUBILITY_MOL/L_TEST_PRED>
2.60E-06

>  <ATMOSPHERIC_HYDROXYLATION_RATE_(AOH)_CM3/MOLECULE*SEC_OPERA_PRED>
7.02E-13

>  <BIOCONCENTRATION_FACTOR_OPERA_PRED>
8099.26

>  <BIODEGRADATION_HALF_LIFE_DAYS_DAYS_OPERA_PRED>
333.114

>  <BOILING_POINT_DEGC_OPERA_PRED>
329.999

>  <HENRYS_LAW_ATM-M3/MOLE_OPERA_PRED>
8.23E-06

>  <OPERA_KM_DAYS_OPERA_PRED>
44.1758

>  <OCTANOL_AIR_PARTITION_COEFF_LOGKOA_OPERA_PRED>
8.56091

>  <SOIL_ADSORPTION_COEFFICIENT_KOC_L/KG_OPERA_PRED>
12041.2

>  <OCTANOL_WATER_PARTITION_LOGP_OPERA_PRED>
5.11788

>  <MELTING_POINT_DEGC_OPERA_PRED>
201.703

>  <VAPOR_PRESSURE_MMHG_OPERA_PRED>
5.88E-06

>  <WATER_SOLUBILITY_MOL/L_OPERA_PRED>
5.42E-07

>  <Shape Index>
0.36842

>  <Molecular Flexibility>
0

>  <Molecular Complexity>
1.0279

>  <Electronegative Atoms>
7

>  <Stereo Centers>
8

>  <Rotatable Bonds>
0

>  <Rings Closures>
5

>  <Aromatic Rings>
0

>  <Aromatic Atoms>
0

>  <Amides>
0

>  <Amines>
0

>  <Aromatic Nitrogens>
0

>  <Shape Index 2>
0.36842

>  <Molecular Flexibility 2>
0

>  <Molecular Complexity 2>
1.0279

>  <Non-C/H Atoms>
7

>  <Electronegative Atoms 2>
7

>  <Stereo Centers 2>
8

>  <Rotatable Bonds 2>
0

>  <Rings Closures 2>
5

>  <Aromatic Rings 2>
0

>  <Aromatic Atoms 2>
0

>  <sp3-Atoms>
11

>  <Amides 2>
0

>  <Amines 2>
0

>  <Aromatic Nitrogens 2>
0

>  <Basic Nitrogens>
0

$$$$
Metconazole
Actelion Java MolfileCreator 2.0

  0  0  0  0  0  0              0 V3000
M  V30 BEGIN CTAB
M  V30 COUNTS 22 24 0 0 0
M  V30 BEGIN ATOM
M  V30 1 Cl 0.0 0.0 0.0 0
M  V30 2 C -1.3061 0.753 0.0 0
M  V30 3 C -1.3178 2.2592 0.0 0
M  V30 4 C -2.6122 0.0117 0.0 0
M  V30 5 C -2.6239 3.0122 0.0 0
M  V30 6 C -3.9183 0.7648 0.0 0
M  V30 7 C -3.9301 2.2709 0.0 0
M  V30 8 C -5.2362 3.024 0.0 0
M  V30 9 C -6.5423 2.2827 0.0 0
M  V30 10 C -7.919 2.9063 0.0 0
M  V30 11 C -6.707 0.8119 0.0 0
M  V30 12 O -6.7658 3.8595 0.0 0
M  V30 13 C -8.9309 1.812 0.0 0
M  V30 14 C -8.2367 4.3772 0.0 0
M  V30 15 C -8.1779 0.5177 0.0 0
M  V30 16 C -10.1547 2.7063 0.0 0
M  V30 17 C -10.3076 1.2119 0.0 0
M  V30 18 N -7.1424 5.3891 0.0 0
M  V30 19 N -5.6951 5.095 0.0 0
M  V30 20 C -7.3071 6.8835 0.0 0
M  V30 21 C -4.9538 6.4011 0.0 0
M  V30 22 N -5.9539 7.5071 0.0 0
M  V30 END ATOM
M  V30 BEGIN BOND
M  V30 1 1 1 2
M  V30 2 2 2 3
M  V30 3 1 2 4
M  V30 4 1 3 5
M  V30 5 2 4 6
M  V30 6 2 5 7
M  V30 7 1 7 8
M  V30 8 1 8 9
M  V30 9 1 9 10
M  V30 10 1 9 11
M  V30 11 1 10 12
M  V30 12 1 10 13
M  V30 13 1 10 14
M  V30 14 1 11 15
M  V30 15 1 13 16
M  V30 16 1 13 17
M  V30 17 1 14 18
M  V30 18 1 18 19
M  V30 19 1 18 20
M  V30 20 2 19 21
M  V30 21 2 20 22
M  V30 22 1 6 7
M  V30 23 1 13 15
M  V30 24 1 21 22
M  V30 END BOND
M  V30 END CTAB
M  END
>  <Molecule Name>
Metconazole

>  <Order (spectra)>
354

>  <NAME>
Metconazole

>  <Molecular Formula>
C17H22N3OCl

>  <Monoisotopic Mass>
319.145139

>  <SMILES>
CC1(C)CCC(CC2=CC=C(Cl)C=C2)C1(O)CN1C=NC=N1

>  <InChI>
InChI=1S/C17H22ClN3O/c1-16(2)8-7-14(9-13-3-5-15(18)6-4-13)17(16,22)10-21-12-19-11-20-21/h3-6,11-12,14,22H,7-10H2,1-2H3

>  <InChIKey>
XWPZUHJBOLQNMN-UHFFFAOYSA-N

>  <Kingdom>
Organic compounds

>  <Superclass>
Lipids and lipid-like molecules

>  <Class>
Prenol lipids

>  <Subclass>
Monoterpenoids

>  <Parent Level 1>
Iridoids and derivatives

>  <Parent Level 2>


>  <Parent Level 3>


>  <cLogP>
2.9509

>  <cLogS>
-3.739

>  <Druglikeness>
2.3586

>  <NP-class probability>
0.08

>  <SmilesFragFp 3>


>  <MS_READY_SMILES>
CC1(C)CCC(CC2=CC=C(Cl)C=C2)C1(O)CN1C=NC=N1

>  <MS_READY_InChI>
InChI=1S/C17H22ClN3O/c1-16(2)8-7-14(9-13-3-5-15(18)6-4-13)17(16,22)10-21-12-19-11-20-21/h3-6,11-12,14,22H,7-10H2,1-2H3

>  <QSAR_READY_SMILES>
CC1(C)CCC(CC2=CC=C(Cl)C=C2)C1(O)CN1C=NC=N1

>  <QSAR_READY_InChI>
InChI=1S/C17H22ClN3O/c1-16(2)8-7-14(9-13-3-5-15(18)6-4-13)17(16,22)10-21-12-19-11-20-21/h3-6,11-12,14,22H,7-10H2,1-2H3

>  <DTXSID>
DTXSID4034497

>  <DTXCID>
DTXCID2014497

>  <CASRN>
125116-23-6

>  <EXPOCAST_MEDIAN_EXPOSURE_PREDICTION_MG/KG-BW/DAY>
6.38E-07

>  <BIOCONCENTRATION_FACTOR_TEST_PRED>
60.3949

>  <BOILING_POINT_DEGC_TEST_PRED>
367.193

>  <48HR_DAPHNIA_LC50_MOL/L_TEST_PRED>
3.10E-05

>  <DENSITY_G/CM^3_TEST_PRED>
1.285

>  <DEVTOX_TEST_PRED>
0.624

>  <96HR_FATHEAD_MINNOW_MOL/L_TEST_PRED>
1.14E-05

>  <FLASH_POINT_DEGC_TEST_PRED>
262.323

>  <MELTING_POINT_DEGC_TEST_PRED>
115.409

>  <AMES_MUTAGENICITY_TEST_PRED>
0.742

>  <ORAL_RAT_LD50_MOL/KG_TEST_PRED>
0.00957194

>  <SURFACE_TENSION_DYN/CM_TEST_PRED>
-

>  <THERMAL_CONDUCTIVITY_MW/(M*K)_TEST_PRED>
-

>  <TETRAHYMENA_PYRIFORMIS_IGC50_MOL/L_TEST_PRED>
-

>  <VISCOSITY_CP_CP_TEST_PRED>
-

>  <VAPOR_PRESSURE_MMHG_TEST_PRED>
1.85E-08

>  <WATER_SOLUBILITY_MOL/L_TEST_PRED>
5.61E-05

>  <ATMOSPHERIC_HYDROXYLATION_RATE_(AOH)_CM3/MOLECULE*SEC_OPERA_PRED>
2.33E-11

>  <BIOCONCENTRATION_FACTOR_OPERA_PRED>
167.819

>  <BIODEGRADATION_HALF_LIFE_DAYS_DAYS_OPERA_PRED>
5.30793

>  <BOILING_POINT_DEGC_OPERA_PRED>
319.225

>  <HENRYS_LAW_ATM-M3/MOLE_OPERA_PRED>
5.76E-08

>  <OPERA_KM_DAYS_OPERA_PRED>
1.70015

>  <OCTANOL_AIR_PARTITION_COEFF_LOGKOA_OPERA_PRED>
11.4045

>  <SOIL_ADSORPTION_COEFFICIENT_KOC_L/KG_OPERA_PRED>
1071

>  <OCTANOL_WATER_PARTITION_LOGP_OPERA_PRED>
3.84953

>  <MELTING_POINT_DEGC_OPERA_PRED>
111.454

>  <VAPOR_PRESSURE_MMHG_OPERA_PRED>
9.27E-08

>  <WATER_SOLUBILITY_MOL/L_OPERA_PRED>
6.70E-05

>  <Shape Index>
0.54545

>  <Molecular Flexibility>
0.48538

>  <Molecular Complexity>
0.81047

>  <Electronegative Atoms>
5

>  <Stereo Centers>
2

>  <Rotatable Bonds>
4

>  <Rings Closures>
3

>  <Aromatic Rings>
2

>  <Aromatic Atoms>
11

>  <Amides>
0

>  <Amines>
0

>  <Aromatic Nitrogens>
3

>  <Shape Index 2>
0.54545

>  <Molecular Flexibility 2>
0.48538

>  <Molecular Complexity 2>
0.81047

>  <Non-C/H Atoms>
5

>  <Electronegative Atoms 2>
5

>  <Stereo Centers 2>
2

>  <Rotatable Bonds 2>
4

>  <Rings Closures 2>
3

>  <Aromatic Rings 2>
2

>  <Aromatic Atoms 2>
11

>  <sp3-Atoms>
10

>  <Amides 2>
0

>  <Amines 2>
0

>  <Aromatic Nitrogens 2>
3

>  <Basic Nitrogens>
0

$$$$
Ipconazole
Actelion Java MolfileCreator 2.0

  0  0  0  0  0  0              0 V3000
M  V30 BEGIN CTAB
M  V30 COUNTS 23 25 0 0 0
M  V30 BEGIN ATOM
M  V30 1 Cl 0.0 0.0 0.0 0
M  V30 2 C -1.3052 0.7643 0.0 0
M  V30 3 C -1.317 2.2695 0.0 0
M  V30 4 C -2.6105 0.0235 0.0 0
M  V30 5 C -2.6223 3.0339 0.0 0
M  V30 6 C -3.9158 0.7761 0.0 0
M  V30 7 C -3.9276 2.293 0.0 0
M  V30 8 C -5.2329 3.0574 0.0 0
M  V30 9 C -6.5382 2.3165 0.0 0
M  V30 10 C -7.914 2.9398 0.0 0
M  V30 11 C -6.7028 0.8466 0.0 0
M  V30 12 O -6.7616 3.8923 0.0 0
M  V30 13 C -8.9253 1.8462 0.0 0
M  V30 14 C -8.2315 4.4097 0.0 0
M  V30 15 C -8.1727 0.5526 0.0 0
M  V30 16 C -10.4188 2.0108 0.0 0
M  V30 17 N -7.1379 5.421 0.0 0
M  V30 18 C -11.042 3.3867 0.0 0
M  V30 19 C -11.3125 0.8113 0.0 0
M  V30 20 N -5.6915 5.127 0.0 0
M  V30 21 C -7.3025 6.9145 0.0 0
M  V30 22 C -4.9507 6.4323 0.0 0
M  V30 23 N -5.9502 7.5377 0.0 0
M  V30 END ATOM
M  V30 BEGIN BOND
M  V30 1 1 1 2
M  V30 2 2 2 3
M  V30 3 1 2 4
M  V30 4 1 3 5
M  V30 5 2 4 6
M  V30 6 2 5 7
M  V30 7 1 7 8
M  V30 8 1 8 9
M  V30 9 1 9 10
M  V30 10 1 9 11
M  V30 11 1 10 12
M  V30 12 1 10 13
M  V30 13 1 10 14
M  V30 14 1 11 15
M  V30 15 1 13 16
M  V30 16 1 14 17
M  V30 17 1 16 18
M  V30 18 1 16 19
M  V30 19 1 17 20
M  V30 20 1 17 21
M  V30 21 2 20 22
M  V30 22 2 21 23
M  V30 23 1 6 7
M  V30 24 1 13 15
M  V30 25 1 22 23
M  V30 END BOND
M  V30 END CTAB
M  END
>  <Molecule Name>
Ipconazole

>  <Order (spectra)>
357

>  <NAME>
Ipconazole

>  <Molecular Formula>
C18H24N3OCl

>  <Monoisotopic Mass>
333.160789

>  <SMILES>
CC(C)C1CCC(CC2=CC=C(Cl)C=C2)C1(O)CN1C=NC=N1

>  <InChI>
InChI=1S/C18H24ClN3O/c1-13(2)17-8-5-15(9-14-3-6-16(19)7-4-14)18(17,23)10-22-12-20-11-21-22/h3-4,6-7,11-13,15,17,23H,5,8-10H2,1-2H3

>  <InChIKey>
QTYCMDBMOLSEAM-UHFFFAOYSA-N

>  <Kingdom>
Organic compounds

>  <Superclass>
Lipids and lipid-like molecules

>  <Class>
Prenol lipids

>  <Subclass>
Monoterpenoids

>  <Parent Level 1>
Iridoids and derivatives

>  <Parent Level 2>


>  <Parent Level 3>


>  <cLogP>
3.2921

>  <cLogS>
-3.992

>  <Druglikeness>
1.2248

>  <NP-class probability>
0.09

>  <SmilesFragFp 3>


>  <MS_READY_SMILES>
CC(C)C1CCC(CC2=CC=C(Cl)C=C2)C1(O)CN1C=NC=N1

>  <MS_READY_InChI>
InChI=1S/C18H24ClN3O/c1-13(2)17-8-5-15(9-14-3-6-16(19)7-4-14)18(17,23)10-22-12-20-11-21-22/h3-4,6-7,11-13,15,17,23H,5,8-10H2,1-2H3

>  <QSAR_READY_SMILES>
CC(C)C1CCC(CC2=CC=C(Cl)C=C2)C1(O)CN1C=NC=N1

>  <QSAR_READY_InChI>
InChI=1S/C18H24ClN3O/c1-13(2)17-8-5-15(9-14-3-6-16(19)7-4-14)18(17,23)10-22-12-20-11-21-22/h3-4,6-7,11-13,15,17,23H,5,8-10H2,1-2H3

>  <DTXSID>
DTXSID7034674

>  <DTXCID>
DTXCID5014674

>  <CASRN>
125225-28-7

>  <EXPOCAST_MEDIAN_EXPOSURE_PREDICTION_MG/KG-BW/DAY>
3.18E-07

>  <BIOCONCENTRATION_FACTOR_TEST_PRED>
74.3019

>  <BOILING_POINT_DEGC_TEST_PRED>
382.375

>  <48HR_DAPHNIA_LC50_MOL/L_TEST_PRED>
0.000025293

>  <DENSITY_G/CM^3_TEST_PRED>
1.274

>  <DEVTOX_TEST_PRED>
0.621

>  <96HR_FATHEAD_MINNOW_MOL/L_TEST_PRED>
1.69E-06

>  <FLASH_POINT_DEGC_TEST_PRED>
258.819

>  <MELTING_POINT_DEGC_TEST_PRED>
111.632

>  <AMES_MUTAGENICITY_TEST_PRED>
0.795

>  <ORAL_RAT_LD50_MOL/KG_TEST_PRED>
0.00820352

>  <SURFACE_TENSION_DYN/CM_TEST_PRED>
-

>  <THERMAL_CONDUCTIVITY_MW/(M*K)_TEST_PRED>
-

>  <TETRAHYMENA_PYRIFORMIS_IGC50_MOL/L_TEST_PRED>
-

>  <VISCOSITY_CP_CP_TEST_PRED>
-

>  <VAPOR_PRESSURE_MMHG_TEST_PRED>
1.60E-08

>  <WATER_SOLUBILITY_MOL/L_TEST_PRED>
3.47E-05

>  <ATMOSPHERIC_HYDROXYLATION_RATE_(AOH)_CM3/MOLECULE*SEC_OPERA_PRED>
2.78E-11

>  <BIOCONCENTRATION_FACTOR_OPERA_PRED>
162.17

>  <BIODEGRADATION_HALF_LIFE_DAYS_DAYS_OPERA_PRED>
22.4614

>  <BOILING_POINT_DEGC_OPERA_PRED>
319.772

>  <HENRYS_LAW_ATM-M3/MOLE_OPERA_PRED>
5.62E-08

>  <OPERA_KM_DAYS_OPERA_PRED>
2.31918

>  <OCTANOL_AIR_PARTITION_COEFF_LOGKOA_OPERA_PRED>
10.9862

>  <SOIL_ADSORPTION_COEFFICIENT_KOC_L/KG_OPERA_PRED>
1240.58

>  <OCTANOL_WATER_PARTITION_LOGP_OPERA_PRED>
4.20802

>  <MELTING_POINT_DEGC_OPERA_PRED>
89.1778

>  <VAPOR_PRESSURE_MMHG_OPERA_PRED>
3.96E-08

>  <WATER_SOLUBILITY_MOL/L_OPERA_PRED>
2.10E-05

>  <Shape Index>
0.52174

>  <Molecular Flexibility>
0.50236

>  <Molecular Complexity>
0.82225

>  <Electronegative Atoms>
5

>  <Stereo Centers>
3

>  <Rotatable Bonds>
5

>  <Rings Closures>
3

>  <Aromatic Rings>
2

>  <Aromatic Atoms>
11

>  <Amides>
0

>  <Amines>
0

>  <Aromatic Nitrogens>
3

>  <Shape Index 2>
0.52174

>  <Molecular Flexibility 2>
0.50236

>  <Molecular Complexity 2>
0.82225

>  <Non-C/H Atoms>
5

>  <Electronegative Atoms 2>
5

>  <Stereo Centers 2>
3

>  <Rotatable Bonds 2>
5

>  <Rings Closures 2>
3

>  <Aromatic Rings 2>
2

>  <Aromatic Atoms 2>
11

>  <sp3-Atoms>
11

>  <Amides 2>
0

>  <Amines 2>
0

>  <Aromatic Nitrogens 2>
3

>  <Basic Nitrogens>
0

$$$$
Pyrene
Actelion Java MolfileCreator 2.0

  0  0  0  0  0  0              0 V3000
M  V30 BEGIN CTAB
M  V30 COUNTS 16 19 0 0 0
M  V30 BEGIN ATOM
M  V30 1 C 0.0 0.0 0.0 0
M  V30 2 C -0.0118 -1.4914 0.0 0
M  V30 3 C 1.2902 0.7575 0.0 0
M  V30 4 C -1.3138 0.7575 0.0 0
M  V30 5 C 1.2783 -2.2253 0.0 0
M  V30 6 C -1.3257 -2.2253 0.0 0
M  V30 7 C 2.5804 0.0236 0.0 0
M  V30 8 C 1.2783 2.2726 0.0 0
M  V30 9 C -2.6277 0.0236 0.0 0
M  V30 10 C -1.3257 2.2726 0.0 0
M  V30 11 C 2.5685 -1.4559 0.0 0
M  V30 12 C 1.2665 -3.7167 0.0 0
M  V30 13 C -2.6395 -1.4677 0.0 0
M  V30 14 C -1.3375 -3.7167 0.0 0
M  V30 15 C -0.0355 3.042 0.0 0
M  V30 16 C -0.0473 -4.4506 0.0 0
M  V30 END ATOM
M  V30 BEGIN BOND
M  V30 1 2 1 2
M  V30 2 1 1 3
M  V30 3 1 1 4
M  V30 4 1 2 5
M  V30 5 1 2 6
M  V30 6 1 3 7
M  V30 7 2 3 8
M  V30 8 2 4 9
M  V30 9 1 4 10
M  V30 10 1 5 11
M  V30 11 2 5 12
M  V30 12 2 6 13
M  V30 13 1 6 14
M  V30 14 1 8 15
M  V30 15 1 12 16
M  V30 16 2 7 11
M  V30 17 1 9 13
M  V30 18 2 10 15
M  V30 19 2 14 16
M  V30 END BOND
M  V30 END CTAB
M  END
>  <Molecule Name>
Pyrene

>  <Order (spectra)>
9

>  <NAME>
Pyrene

>  <Molecular Formula>
C16H10

>  <Monoisotopic Mass>
202.07825

>  <SMILES>
C1=CC2=C3C(C=CC4=CC=CC(C=C2)=C34)=C1

>  <InChI>
InChI=1S/C16H10/c1-3-11-7-9-13-5-2-6-14-10-8-12(4-1)15(11)16(13)14/h1-10H

>  <InChIKey>
BBEAQIROQSPTKN-UHFFFAOYSA-N

>  <Kingdom>
Organic compounds

>  <Superclass>
Benzenoids

>  <Class>
Pyrenes

>  <Subclass>


>  <Parent Level 1>
Pyrenes

>  <Parent Level 2>


>  <Parent Level 3>


>  <cLogP>
4.6896

>  <cLogS>
-6.072

>  <Druglikeness>
-2.3575

>  <NP-class probability>
1

>  <SmilesFragFp 3>


>  <MS_READY_SMILES>
C1=CC2=C3C(C=CC4=CC=CC(C=C2)=C34)=C1

>  <MS_READY_InChI>
InChI=1S/C16H10/c1-3-11-7-9-13-5-2-6-14-10-8-12(4-1)15(11)16(13)14/h1-10H

>  <QSAR_READY_SMILES>
C1=CC2=C3C(C=CC4=CC=CC(C=C2)=C34)=C1

>  <QSAR_READY_InChI>
InChI=1S/C16H10/c1-3-11-7-9-13-5-2-6-14-10-8-12(4-1)15(11)16(13)14/h1-10H

>  <DTXSID>
DTXSID3024289

>  <DTXCID>
DTXCID804289

>  <CASRN>
129-00-0

>  <EXPOCAST_MEDIAN_EXPOSURE_PREDICTION_MG/KG-BW/DAY>
7.14E-07

>  <BIOCONCENTRATION_FACTOR_TEST_PRED>
529.663

>  <BOILING_POINT_DEGC_TEST_PRED>
415.21

>  <48HR_DAPHNIA_LC50_MOL/L_TEST_PRED>
2.52E-06

>  <DENSITY_G/CM^3_TEST_PRED>
1.234

>  <DEVTOX_TEST_PRED>
0.342

>  <96HR_FATHEAD_MINNOW_MOL/L_TEST_PRED>
1.10E-06

>  <FLASH_POINT_DEGC_TEST_PRED>
189.229

>  <MELTING_POINT_DEGC_TEST_PRED>
173.707

>  <AMES_MUTAGENICITY_TEST_PRED>
0.842

>  <ORAL_RAT_LD50_MOL/KG_TEST_PRED>
0.00704693

>  <SURFACE_TENSION_DYN/CM_TEST_PRED>
41.97

>  <THERMAL_CONDUCTIVITY_MW/(M*K)_TEST_PRED>
122.478

>  <TETRAHYMENA_PYRIFORMIS_IGC50_MOL/L_TEST_PRED>
1.91E-05

>  <VISCOSITY_CP_CP_TEST_PRED>
-

>  <VAPOR_PRESSURE_MMHG_TEST_PRED>
8.69E-08

>  <WATER_SOLUBILITY_MOL/L_TEST_PRED>
1.21E-07

>  <ATMOSPHERIC_HYDROXYLATION_RATE_(AOH)_CM3/MOLECULE*SEC_OPERA_PRED>
4.98E-11

>  <BIOCONCENTRATION_FACTOR_OPERA_PRED>
1557.35

>  <BIODEGRADATION_HALF_LIFE_DAYS_DAYS_OPERA_PRED>
237.283

>  <BOILING_POINT_DEGC_OPERA_PRED>
393.972

>  <HENRYS_LAW_ATM-M3/MOLE_OPERA_PRED>
1.19E-05

>  <OPERA_KM_DAYS_OPERA_PRED>
2.08881

>  <OCTANOL_AIR_PARTITION_COEFF_LOGKOA_OPERA_PRED>
8.855

>  <SOIL_ADSORPTION_COEFFICIENT_KOC_L/KG_OPERA_PRED>
79473.2

>  <OCTANOL_WATER_PARTITION_LOGP_OPERA_PRED>
4.88312

>  <MELTING_POINT_DEGC_OPERA_PRED>
152.013

>  <VAPOR_PRESSURE_MMHG_OPERA_PRED>
4.48E-06

>  <WATER_SOLUBILITY_MOL/L_OPERA_PRED>
7.22E-07

>  <Shape Index>
0.5

>  <Molecular Flexibility>
0

>  <Molecular Complexity>
0.60487

>  <Electronegative Atoms>
0

>  <Stereo Centers>
0

>  <Rotatable Bonds>
0

>  <Rings Closures>
4

>  <Aromatic Rings>
4

>  <Aromatic Atoms>
16

>  <Amides>
0

>  <Amines>
0

>  <Aromatic Nitrogens>
0

>  <Shape Index 2>
0.5

>  <Molecular Flexibility 2>
0

>  <Molecular Complexity 2>
0.60487

>  <Non-C/H Atoms>
0

>  <Electronegative Atoms 2>
0

>  <Stereo Centers 2>
0

>  <Rotatable Bonds 2>
0

>  <Rings Closures 2>
4

>  <Aromatic Rings 2>
4

>  <Aromatic Atoms 2>
16

>  <sp3-Atoms>
0

>  <Amides 2>
0

>  <Amines 2>
0

>  <Aromatic Nitrogens 2>
0

>  <Basic Nitrogens>
0

$$$$
Benzo[e]pyrene
Actelion Java MolfileCreator 2.0

  0  0  0  0  0  0              0 V3000
M  V30 BEGIN CTAB
M  V30 COUNTS 20 24 0 0 0
M  V30 BEGIN ATOM
M  V30 1 C 0.0 0.0 0.0 0
M  V30 2 C -0.0118 -1.4938 0.0 0
M  V30 3 C 1.2923 0.7588 0.0 0
M  V30 4 C -1.316 0.7588 0.0 0
M  V30 5 C 1.2804 -2.2289 0.0 0
M  V30 6 C -1.3279 -2.2289 0.0 0
M  V30 7 C 2.5846 0.0237 0.0 0
M  V30 8 C 1.2804 2.2764 0.0 0
M  V30 9 C -2.632 0.0237 0.0 0
M  V30 10 C -1.3279 2.2764 0.0 0
M  V30 11 C 2.5728 -1.4583 0.0 0
M  V30 12 C 1.2686 -3.7228 0.0 0
M  V30 13 C -2.6439 -1.4701 0.0 0
M  V30 14 C -1.3397 -3.7228 0.0 0
M  V30 15 C 3.877 0.7825 0.0 0
M  V30 16 C -0.0355 3.047 0.0 0
M  V30 17 C 3.8651 -2.1934 0.0 0
M  V30 18 C -0.0474 -4.4579 0.0 0
M  V30 19 C 5.1693 0.0474 0.0 0
M  V30 20 C 5.1574 -1.4346 0.0 0
M  V30 END ATOM
M  V30 BEGIN BOND
M  V30 1 2 1 2
M  V30 2 1 1 3
M  V30 3 1 1 4
M  V30 4 1 2 5
M  V30 5 1 2 6
M  V30 6 2 3 7
M  V30 7 1 3 8
M  V30 8 1 4 9
M  V30 9 2 4 10
M  V30 10 2 5 11
M  V30 11 1 5 12
M  V30 12 1 6 13
M  V30 13 2 6 14
M  V30 14 1 7 15
M  V30 15 2 8 16
M  V30 16 1 11 17
M  V30 17 2 12 18
M  V30 18 2 15 19
M  V30 19 2 17 20
M  V30 20 1 7 11
M  V30 21 2 9 13
M  V30 22 1 10 16
M  V30 23 1 14 18
M  V30 24 1 19 20
M  V30 END BOND
M  V30 END CTAB
M  END
>  <Molecule Name>
Benzo[e]pyrene

>  <Order (spectra)>
19

>  <NAME>
Benzo[e]pyrene

>  <Molecular Formula>
C20H12

>  <Monoisotopic Mass>
252.0939

>  <SMILES>
C1=CC2=C3C=CC=C4C=CC5=CC=CC(=C2C=C1)C5=C34

>  <InChI>
InChI=1S/C20H12/c1-2-8-16-15(7-1)17-9-3-5-13-11-12-14-6-4-10-18(16)20(14)19(13)17/h1-12H

>  <InChIKey>
TXVHTIQJNYSSKO-UHFFFAOYSA-N

>  <Kingdom>
Organic compounds

>  <Superclass>
Benzenoids

>  <Class>
Pyrenes

>  <Subclass>
Benzopyrenes

>  <Parent Level 1>
Benzopyrenes

>  <Parent Level 2>


>  <Parent Level 3>


>  <cLogP>
5.884

>  <cLogS>
-7.678

>  <Druglikeness>
-2.3575

>  <NP-class probability>
1

>  <SmilesFragFp 3>


>  <MS_READY_SMILES>
C1=CC2=C3C=CC=C4C=CC5=CC=CC(=C2C=C1)C5=C34

>  <MS_READY_InChI>
InChI=1S/C20H12/c1-2-8-16-15(7-1)17-9-3-5-13-11-12-14-6-4-10-18(16)20(14)19(13)17/h1-12H

>  <QSAR_READY_SMILES>
C1=CC2=C3C=CC=C4C=CC5=CC=CC(=C2C=C1)C5=C34

>  <QSAR_READY_InChI>
InChI=1S/C20H12/c1-2-8-16-15(7-1)17-9-3-5-13-11-12-14-6-4-10-18(16)20(14)19(13)17/h1-12H

>  <DTXSID>
DTXSID3023764

>  <DTXCID>
DTXCID103764

>  <CASRN>
192-97-2

>  <EXPOCAST_MEDIAN_EXPOSURE_PREDICTION_MG/KG-BW/DAY>
8.86E-06

>  <BIOCONCENTRATION_FACTOR_TEST_PRED>
654.636

>  <BOILING_POINT_DEGC_TEST_PRED>
477.23

>  <48HR_DAPHNIA_LC50_MOL/L_TEST_PRED>
7.48E-07

>  <DENSITY_G/CM^3_TEST_PRED>
1.273

>  <DEVTOX_TEST_PRED>
0.355

>  <96HR_FATHEAD_MINNOW_MOL/L_TEST_PRED>
2.12E-07

>  <FLASH_POINT_DEGC_TEST_PRED>
232.257

>  <MELTING_POINT_DEGC_TEST_PRED>
223.85

>  <AMES_MUTAGENICITY_TEST_PRED>
0.984

>  <ORAL_RAT_LD50_MOL/KG_TEST_PRED>
-

>  <SURFACE_TENSION_DYN/CM_TEST_PRED>
44.403

>  <THERMAL_CONDUCTIVITY_MW/(M*K)_TEST_PRED>
-

>  <TETRAHYMENA_PYRIFORMIS_IGC50_MOL/L_TEST_PRED>
3.44E-06

>  <VISCOSITY_CP_CP_TEST_PRED>
-

>  <VAPOR_PRESSURE_MMHG_TEST_PRED>
7.13E-09

>  <WATER_SOLUBILITY_MOL/L_TEST_PRED>
8.17E-09

>  <ATMOSPHERIC_HYDROXYLATION_RATE_(AOH)_CM3/MOLECULE*SEC_OPERA_PRED>
3.45E-11

>  <BIOCONCENTRATION_FACTOR_OPERA_PRED>
910.302

>  <BIODEGRADATION_HALF_LIFE_DAYS_DAYS_OPERA_PRED>
365.345

>  <BOILING_POINT_DEGC_OPERA_PRED>
486.93

>  <HENRYS_LAW_ATM-M3/MOLE_OPERA_PRED>
1.07E-06

>  <OPERA_KM_DAYS_OPERA_PRED>
1.17396

>  <OCTANOL_AIR_PARTITION_COEFF_LOGKOA_OPERA_PRED>
10.3435

>  <SOIL_ADSORPTION_COEFFICIENT_KOC_L/KG_OPERA_PRED>
544271

>  <OCTANOL_WATER_PARTITION_LOGP_OPERA_PRED>
6.42775

>  <MELTING_POINT_DEGC_OPERA_PRED>
225.812

>  <VAPOR_PRESSURE_MMHG_OPERA_PRED>
5.68E-09

>  <WATER_SOLUBILITY_MOL/L_OPERA_PRED>
1.36E-08

>  <Shape Index>
0.4

>  <Molecular Flexibility>
0

>  <Molecular Complexity>
0.70389

>  <Electronegative Atoms>
0

>  <Stereo Centers>
0

>  <Rotatable Bonds>
0

>  <Rings Closures>
5

>  <Aromatic Rings>
5

>  <Aromatic Atoms>
20

>  <Amides>
0

>  <Amines>
0

>  <Aromatic Nitrogens>
0

>  <Shape Index 2>
0.4

>  <Molecular Flexibility 2>
0

>  <Molecular Complexity 2>
0.70389

>  <Non-C/H Atoms>
0

>  <Electronegative Atoms 2>
0

>  <Stereo Centers 2>
0

>  <Rotatable Bonds 2>
0

>  <Rings Closures 2>
5

>  <Aromatic Rings 2>
5

>  <Aromatic Atoms 2>
20

>  <sp3-Atoms>
0

>  <Amides 2>
0

>  <Amines 2>
0

>  <Aromatic Nitrogens 2>
0

>  <Basic Nitrogens>
0

$$$$
Benzo(a)pyrene
Actelion Java MolfileCreator 2.0

  0  0  0  0  0  0              0 V3000
M  V30 BEGIN CTAB
M  V30 COUNTS 20 24 0 0 0
M  V30 BEGIN ATOM
M  V30 1 C 0.0 0.0 0.0 0
M  V30 2 C -0.0118 -1.4902 0.0 0
M  V30 3 C 1.2892 0.7569 0.0 0
M  V30 4 C -1.3128 0.7569 0.0 0
M  V30 5 C 1.2773 -2.2236 0.0 0
M  V30 6 C -1.3247 -2.2236 0.0 0
M  V30 7 C 1.2773 2.2709 0.0 0
M  V30 8 C 2.5784 0.0236 0.0 0
M  V30 9 C -1.3247 2.2709 0.0 0
M  V30 10 C -2.6257 0.0236 0.0 0
M  V30 11 C 2.5666 -1.4548 0.0 0
M  V30 12 C 1.2655 -3.7139 0.0 0
M  V30 13 C -2.6375 -1.4666 0.0 0
M  V30 14 C -1.3365 -3.7139 0.0 0
M  V30 15 C -0.0354 3.0279 0.0 0
M  V30 16 C 2.5666 3.0279 0.0 0
M  V30 17 C -0.0473 -4.4472 0.0 0
M  V30 18 C -0.0473 4.5418 0.0 0
M  V30 19 C 2.5547 4.5418 0.0 0
M  V30 20 C 1.2419 5.2988 0.0 0
M  V30 END ATOM
M  V30 BEGIN BOND
M  V30 1 2 1 2
M  V30 2 1 1 3
M  V30 3 1 1 4
M  V30 4 1 2 5
M  V30 5 1 2 6
M  V30 6 2 3 7
M  V30 7 1 3 8
M  V30 8 1 4 9
M  V30 9 2 4 10
M  V30 10 1 5 11
M  V30 11 2 5 12
M  V30 12 2 6 13
M  V30 13 1 6 14
M  V30 14 1 7 15
M  V30 15 1 7 16
M  V30 16 1 12 17
M  V30 17 1 15 18
M  V30 18 2 16 19
M  V30 19 2 18 20
M  V30 20 2 8 11
M  V30 21 2 9 15
M  V30 22 1 10 13
M  V30 23 2 14 17
M  V30 24 1 19 20
M  V30 END BOND
M  V30 END CTAB
M  END
>  <Molecule Name>
Benzo(a)pyrene

>  <Order (spectra)>
20

>  <NAME>
Benzo(a)pyrene

>  <Molecular Formula>
C20H12

>  <Monoisotopic Mass>
252.0939

>  <SMILES>
C1=CC2=CC3=CC=C4C=CC=C5C=CC(=C2C=C1)C3=C45

>  <InChI>
InChI=1S/C20H12/c1-2-7-17-15(4-1)12-16-9-8-13-5-3-6-14-10-11-18(17)20(16)19(13)14/h1-12H

>  <InChIKey>
FMMWHPNWAFZXNH-UHFFFAOYSA-N

>  <Kingdom>
Organic compounds

>  <Superclass>
Benzenoids

>  <Class>
Pyrenes

>  <Subclass>
Benzopyrenes

>  <Parent Level 1>
Benzopyrenes

>  <Parent Level 2>


>  <Parent Level 3>


>  <cLogP>
5.884

>  <cLogS>
-7.678

>  <Druglikeness>
-2.3575

>  <NP-class probability>
1

>  <SmilesFragFp 3>


>  <MS_READY_SMILES>
C1=CC2=CC3=CC=C4C=CC=C5C=CC(=C2C=C1)C3=C45

>  <MS_READY_InChI>
InChI=1S/C20H12/c1-2-7-17-15(4-1)12-16-9-8-13-5-3-6-14-10-11-18(17)20(16)19(13)14/h1-12H

>  <QSAR_READY_SMILES>
C1=CC2=CC3=CC=C4C=CC=C5C=CC(=C2C=C1)C3=C45

>  <QSAR_READY_InChI>
InChI=1S/C20H12/c1-2-7-17-15(4-1)12-16-9-8-13-5-3-6-14-10-11-18(17)20(16)19(13)14/h1-12H

>  <DTXSID>
DTXSID2020139

>  <DTXCID>
DTXCID40139

>  <CASRN>
50-32-8

>  <EXPOCAST_MEDIAN_EXPOSURE_PREDICTION_MG/KG-BW/DAY>
1.16E-06

>  <BIOCONCENTRATION_FACTOR_TEST_PRED>
568.853

>  <BOILING_POINT_DEGC_TEST_PRED>
489.188

>  <48HR_DAPHNIA_LC50_MOL/L_TEST_PRED>
7.94E-07

>  <DENSITY_G/CM^3_TEST_PRED>
1.272

>  <DEVTOX_TEST_PRED>
0.365

>  <96HR_FATHEAD_MINNOW_MOL/L_TEST_PRED>
1.26E-07

>  <FLASH_POINT_DEGC_TEST_PRED>
239.125

>  <MELTING_POINT_DEGC_TEST_PRED>
221.088

>  <AMES_MUTAGENICITY_TEST_PRED>
1.018

>  <ORAL_RAT_LD50_MOL/KG_TEST_PRED>
-

>  <SURFACE_TENSION_DYN/CM_TEST_PRED>
44.361

>  <THERMAL_CONDUCTIVITY_MW/(M*K)_TEST_PRED>
-

>  <TETRAHYMENA_PYRIFORMIS_IGC50_MOL/L_TEST_PRED>
3.44E-06

>  <VISCOSITY_CP_CP_TEST_PRED>
-

>  <VAPOR_PRESSURE_MMHG_TEST_PRED>
3.46E-09

>  <WATER_SOLUBILITY_MOL/L_TEST_PRED>
7.67E-09

>  <ATMOSPHERIC_HYDROXYLATION_RATE_(AOH)_CM3/MOLECULE*SEC_OPERA_PRED>
7.78E-11

>  <BIOCONCENTRATION_FACTOR_OPERA_PRED>
1099.35

>  <BIODEGRADATION_HALF_LIFE_DAYS_DAYS_OPERA_PRED>
223.868

>  <BOILING_POINT_DEGC_OPERA_PRED>
494.844

>  <HENRYS_LAW_ATM-M3/MOLE_OPERA_PRED>
4.59E-07

>  <OPERA_KM_DAYS_OPERA_PRED>
1.12219

>  <OCTANOL_AIR_PARTITION_COEFF_LOGKOA_OPERA_PRED>
9.61292

>  <SOIL_ADSORPTION_COEFFICIENT_KOC_L/KG_OPERA_PRED>
889341

>  <OCTANOL_WATER_PARTITION_LOGP_OPERA_PRED>
6.12888

>  <MELTING_POINT_DEGC_OPERA_PRED>
176.77

>  <VAPOR_PRESSURE_MMHG_OPERA_PRED>
5.51E-09

>  <WATER_SOLUBILITY_MOL/L_OPERA_PRED>
7.76E-09

>  <Shape Index>
0.5

>  <Molecular Flexibility>
0

>  <Molecular Complexity>
0.70798

>  <Electronegative Atoms>
0

>  <Stereo Centers>
0

>  <Rotatable Bonds>
0

>  <Rings Closures>
5

>  <Aromatic Rings>
5

>  <Aromatic Atoms>
20

>  <Amides>
0

>  <Amines>
0

>  <Aromatic Nitrogens>
0

>  <Shape Index 2>
0.5

>  <Molecular Flexibility 2>
0

>  <Molecular Complexity 2>
0.70798

>  <Non-C/H Atoms>
0

>  <Electronegative Atoms 2>
0

>  <Stereo Centers 2>
0

>  <Rotatable Bonds 2>
0

>  <Rings Closures 2>
5

>  <Aromatic Rings 2>
5

>  <Aromatic Atoms 2>
20

>  <sp3-Atoms>
0

>  <Amides 2>
0

>  <Amines 2>
0

>  <Aromatic Nitrogens 2>
0

>  <Basic Nitrogens>
0

$$$$
Indeno[1,2,3-cd]pyrene
Actelion Java MolfileCreator 2.0

  0  0  0  0  0  0              0 V3000
M  V30 BEGIN CTAB
M  V30 COUNTS 22 27 0 0 0
M  V30 BEGIN ATOM
M  V30 1 C 0.0 0.0 0.0 0
M  V30 2 C 1.2876 0.7581 0.0 0
M  V30 3 C -0.012 -1.4801 0.0 0
M  V30 4 C -1.2394 0.9265 0.0 0
M  V30 5 C 1.5042 2.2984 0.0 0
M  V30 6 C 2.5752 0.024 0.0 0
M  V30 7 C 1.2755 -2.2142 0.0 0
M  V30 8 C -1.4079 -2.1179 0.0 0
M  V30 9 C -1.1432 2.4308 0.0 0
M  V30 10 C -2.5752 0.1925 0.0 0
M  V30 11 C 0.1805 3.0926 0.0 0
M  V30 12 C 2.864 2.9242 0.0 0
M  V30 13 C 2.5631 -1.456 0.0 0
M  V30 14 C 3.9831 0.4933 0.0 0
M  V30 15 C -2.6714 -1.2876 0.0 0
M  V30 16 C 4.0674 2.0577 0.0 0
M  V30 17 C 3.9711 -1.9013 0.0 0
M  V30 18 C 4.8496 -0.7099 0.0 0
M  V30 19 C 4.5728 -3.2611 0.0 0
M  V30 20 C 6.3297 -0.8543 0.0 0
M  V30 21 C 6.0529 -3.4055 0.0 0
M  V30 22 C 6.9314 -2.2142 0.0 0
M  V30 END ATOM
M  V30 BEGIN BOND
M  V30 1 2 1 2
M  V30 2 1 1 3
M  V30 3 1 1 4
M  V30 4 1 2 5
M  V30 5 1 2 6
M  V30 6 1 3 7
M  V30 7 2 3 8
M  V30 8 2 4 9
M  V30 9 1 4 10
M  V30 10 2 5 11
M  V30 11 1 5 12
M  V30 12 1 6 13
M  V30 13 2 6 14
M  V30 14 1 8 15
M  V30 15 2 12 16
M  V30 16 1 13 17
M  V30 17 1 14 18
M  V30 18 1 17 19
M  V30 19 1 18 20
M  V30 20 2 19 21
M  V30 21 2 20 22
M  V30 22 2 7 13
M  V30 23 1 9 11
M  V30 24 2 10 15
M  V30 25 1 14 16
M  V30 26 2 17 18
M  V30 27 1 21 22
M  V30 END BOND
M  V30 END CTAB
M  END
>  <Molecule Name>
Indeno[1,2,3-cd]pyrene

>  <Order (spectra)>
21

>  <NAME>
Indeno[1,2,3-cd]pyrene

>  <Molecular Formula>
C22H12

>  <Monoisotopic Mass>
276.0939

>  <SMILES>
C1=CC2=C(C=C1)C1=C3C2=CC2=C4C(C=CC(C=C1)=C34)=CC=C2

>  <InChI>
InChI=1S/C22H12/c1-2-7-17-16(6-1)18-11-10-14-9-8-13-4-3-5-15-12-19(17)22(18)21(14)20(13)15/h1-12H

>  <InChIKey>
SXQBHARYMNFBPS-UHFFFAOYSA-N

>  <Kingdom>
Organic compounds

>  <Superclass>
Benzenoids

>  <Class>
Pyrenes

>  <Subclass>


>  <Parent Level 1>
Pyrenes

>  <Parent Level 2>


>  <Parent Level 3>


>  <cLogP>
6.3484

>  <cLogS>
-9.158

>  <Druglikeness>
-2.1841

>  <NP-class probability>
1

>  <SmilesFragFp 3>


>  <MS_READY_SMILES>
C1=CC2=C(C=C1)C1=C3C2=CC2=C4C(C=CC(C=C1)=C34)=CC=C2

>  <MS_READY_InChI>
InChI=1S/C22H12/c1-2-7-17-16(6-1)18-11-10-14-9-8-13-4-3-5-15-12-19(17)22(18)21(14)20(13)15/h1-12H

>  <QSAR_READY_SMILES>
C1=CC2=C(C=C1)C1=C3C2=CC2=C4C(C=CC(C=C1)=C34)=CC=C2

>  <QSAR_READY_InChI>
InChI=1S/C22H12/c1-2-7-17-16(6-1)18-11-10-14-9-8-13-4-3-5-15-12-19(17)22(18)21(14)20(13)15/h1-12H

>  <DTXSID>
DTXSID8024153

>  <DTXCID>
DTXCID304153

>  <CASRN>
193-39-5

>  <EXPOCAST_MEDIAN_EXPOSURE_PREDICTION_MG/KG-BW/DAY>
4.73E-06

>  <BIOCONCENTRATION_FACTOR_TEST_PRED>
665.273

>  <BOILING_POINT_DEGC_TEST_PRED>
534.877

>  <48HR_DAPHNIA_LC50_MOL/L_TEST_PRED>
2.74E-07

>  <DENSITY_G/CM^3_TEST_PRED>
1.346

>  <DEVTOX_TEST_PRED>
-

>  <96HR_FATHEAD_MINNOW_MOL/L_TEST_PRED>
-

>  <FLASH_POINT_DEGC_TEST_PRED>
268.036

>  <MELTING_POINT_DEGC_TEST_PRED>
273.776

>  <AMES_MUTAGENICITY_TEST_PRED>
1.042

>  <ORAL_RAT_LD50_MOL/KG_TEST_PRED>
-

>  <SURFACE_TENSION_DYN/CM_TEST_PRED>
-

>  <THERMAL_CONDUCTIVITY_MW/(M*K)_TEST_PRED>
-

>  <TETRAHYMENA_PYRIFORMIS_IGC50_MOL/L_TEST_PRED>
1.91E-06

>  <VISCOSITY_CP_CP_TEST_PRED>
-

>  <VAPOR_PRESSURE_MMHG_TEST_PRED>
3.23E-10

>  <WATER_SOLUBILITY_MOL/L_TEST_PRED>
1.03E-09

>  <ATMOSPHERIC_HYDROXYLATION_RATE_(AOH)_CM3/MOLECULE*SEC_OPERA_PRED>
2.22E-11

>  <BIOCONCENTRATION_FACTOR_OPERA_PRED>
1201.9

>  <BIODEGRADATION_HALF_LIFE_DAYS_DAYS_OPERA_PRED>
330.219

>  <BOILING_POINT_DEGC_OPERA_PRED>
535.958

>  <HENRYS_LAW_ATM-M3/MOLE_OPERA_PRED>
3.49E-07

>  <OPERA_KM_DAYS_OPERA_PRED>
1.54444

>  <OCTANOL_AIR_PARTITION_COEFF_LOGKOA_OPERA_PRED>
11.7243

>  <SOIL_ADSORPTION_COEFFICIENT_KOC_L/KG_OPERA_PRED>
1573270

>  <OCTANOL_WATER_PARTITION_LOGP_OPERA_PRED>
6.75816

>  <MELTING_POINT_DEGC_OPERA_PRED>
164.544

>  <VAPOR_PRESSURE_MMHG_OPERA_PRED>
2.31E-10

>  <WATER_SOLUBILITY_MOL/L_OPERA_PRED>
7.74E-10

>  <Shape Index>
0.40909

>  <Molecular Flexibility>
0

>  <Molecular Complexity>
0.87805

>  <Electronegative Atoms>
0

>  <Stereo Centers>
0

>  <Rotatable Bonds>
0

>  <Rings Closures>
6

>  <Aromatic Rings>
5

>  <Aromatic Atoms>
22

>  <Amides>
0

>  <Amines>
0

>  <Aromatic Nitrogens>
0

>  <Shape Index 2>
0.40909

>  <Molecular Flexibility 2>
0

>  <Molecular Complexity 2>
0.87805

>  <Non-C/H Atoms>
0

>  <Electronegative Atoms 2>
0

>  <Stereo Centers 2>
0

>  <Rotatable Bonds 2>
0

>  <Rings Closures 2>
6

>  <Aromatic Rings 2>
5

>  <Aromatic Atoms 2>
22

>  <sp3-Atoms>
0

>  <Amides 2>
0

>  <Amines 2>
0

>  <Aromatic Nitrogens 2>
0

>  <Basic Nitrogens>
0

$$$$
Benzo(g,h,i)perylene
Actelion Java MolfileCreator 2.0

  0  0  0  0  0  0              0 V3000
M  V30 BEGIN CTAB
M  V30 COUNTS 22 27 0 0 0
M  V30 BEGIN ATOM
M  V30 1 C 0.0 0.0 0.0 0
M  V30 2 C -0.0118 -1.4931 0.0 0
M  V30 3 C 1.2916 0.7584 0.0 0
M  V30 4 C -1.3153 0.7584 0.0 0
M  V30 5 C 1.2798 -2.2278 0.0 0
M  V30 6 C -1.3272 -2.2278 0.0 0
M  V30 7 C 2.5833 0.0237 0.0 0
M  V30 8 C 1.2798 2.2752 0.0 0
M  V30 9 C -2.6307 0.0237 0.0 0
M  V30 10 C -1.3272 2.2752 0.0 0
M  V30 11 C 2.5714 -1.4575 0.0 0
M  V30 12 C 1.2679 -3.7209 0.0 0
M  V30 13 C -2.6425 -1.4694 0.0 0
M  V30 14 C -1.339 -3.7209 0.0 0
M  V30 15 C 3.875 0.7821 0.0 0
M  V30 16 C -0.0355 3.0455 0.0 0
M  V30 17 C 2.5714 3.0336 0.0 0
M  V30 18 C 3.8631 -2.2041 0.0 0
M  V30 19 C -0.0474 -4.4556 0.0 0
M  V30 20 C 2.5596 -4.4556 0.0 0
M  V30 21 C 3.8631 2.2989 0.0 0
M  V30 22 C 3.8513 -3.6972 0.0 0
M  V30 END ATOM
M  V30 BEGIN BOND
M  V30 1 1 1 2
M  V30 2 2 1 3
M  V30 3 1 1 4
M  V30 4 2 2 5
M  V30 5 1 2 6
M  V30 6 1 3 7
M  V30 7 1 3 8
M  V30 8 1 4 9
M  V30 9 2 4 10
M  V30 10 1 5 11
M  V30 11 1 5 12
M  V30 12 1 6 13
M  V30 13 2 6 14
M  V30 14 2 7 15
M  V30 15 2 8 16
M  V30 16 1 8 17
M  V30 17 2 11 18
M  V30 18 2 12 19
M  V30 19 1 12 20
M  V30 20 1 15 21
M  V30 21 1 18 22
M  V30 22 1 7 11
M  V30 23 2 9 13
M  V30 24 1 10 16
M  V30 25 1 14 19
M  V30 26 2 17 21
M  V30 27 2 20 22
M  V30 END BOND
M  V30 END CTAB
M  END
>  <Molecule Name>
Benzo(g,h,i)perylene

>  <Order (spectra)>
22

>  <NAME>
Benzo(g,h,i)perylene

>  <Molecular Formula>
C22H12

>  <Monoisotopic Mass>
276.0939

>  <SMILES>
C1=CC2=C3C(=C1)C1=C4C(C=CC5=C4C3=C(C=C2)C=C5)=CC=C1

>  <InChI>
InChI=1S/C22H12/c1-3-13-7-9-15-11-12-16-10-8-14-4-2-6-18-17(5-1)19(13)21(15)22(16)20(14)18/h1-12H

>  <InChIKey>
GYFAGKUZYNFMBN-UHFFFAOYSA-N

>  <Kingdom>
Organic compounds

>  <Superclass>
Benzenoids

>  <Class>
Pyrenes

>  <Subclass>
Benzopyrenes

>  <Parent Level 1>
Benzopyrenes

>  <Parent Level 2>


>  <Parent Level 3>


>  <cLogP>
6.5252

>  <cLogS>
-8.922

>  <Druglikeness>
-2.3575

>  <NP-class probability>
1

>  <SmilesFragFp 3>


>  <MS_READY_SMILES>
C1=CC2=C3C(=C1)C1=C4C(C=CC5=C4C3=C(C=C2)C=C5)=CC=C1

>  <MS_READY_InChI>
InChI=1S/C22H12/c1-3-13-7-9-15-11-12-16-10-8-14-4-2-6-18-17(5-1)19(13)21(15)22(16)20(14)18/h1-12H

>  <QSAR_READY_SMILES>
C1=CC2=C3C(=C1)C1=C4C(C=CC5=C4C3=C(C=C2)C=C5)=CC=C1

>  <QSAR_READY_InChI>
InChI=1S/C22H12/c1-3-13-7-9-15-11-12-16-10-8-14-4-2-6-18-17(5-1)19(13)21(15)22(16)20(14)18/h1-12H

>  <DTXSID>
DTXSID5023908

>  <DTXCID>
DTXCID303908

>  <CASRN>
191-24-2

>  <EXPOCAST_MEDIAN_EXPOSURE_PREDICTION_MG/KG-BW/DAY>
9.13E-06

>  <BIOCONCENTRATION_FACTOR_TEST_PRED>
765.597

>  <BOILING_POINT_DEGC_TEST_PRED>
511.575

>  <48HR_DAPHNIA_LC50_MOL/L_TEST_PRED>
5.20E-07

>  <DENSITY_G/CM^3_TEST_PRED>
1.346

>  <DEVTOX_TEST_PRED>
-

>  <96HR_FATHEAD_MINNOW_MOL/L_TEST_PRED>
-

>  <FLASH_POINT_DEGC_TEST_PRED>
262.98

>  <MELTING_POINT_DEGC_TEST_PRED>
299.222

>  <AMES_MUTAGENICITY_TEST_PRED>
0.972

>  <ORAL_RAT_LD50_MOL/KG_TEST_PRED>
-

>  <SURFACE_TENSION_DYN/CM_TEST_PRED>
-

>  <THERMAL_CONDUCTIVITY_MW/(M*K)_TEST_PRED>
-

>  <TETRAHYMENA_PYRIFORMIS_IGC50_MOL/L_TEST_PRED>
1.91E-06

>  <VISCOSITY_CP_CP_TEST_PRED>
-

>  <VAPOR_PRESSURE_MMHG_TEST_PRED>
4.62E-10

>  <WATER_SOLUBILITY_MOL/L_TEST_PRED>
1.82E-09

>  <ATMOSPHERIC_HYDROXYLATION_RATE_(AOH)_CM3/MOLECULE*SEC_OPERA_PRED>
3.79E-11

>  <BIOCONCENTRATION_FACTOR_OPERA_PRED>
1201.9

>  <BIODEGRADATION_HALF_LIFE_DAYS_DAYS_OPERA_PRED>
561.595

>  <BOILING_POINT_DEGC_OPERA_PRED>
535.958

>  <HENRYS_LAW_ATM-M3/MOLE_OPERA_PRED>
3.32E-07

>  <OPERA_KM_DAYS_OPERA_PRED>
1.66131

>  <OCTANOL_AIR_PARTITION_COEFF_LOGKOA_OPERA_PRED>
11.7243

>  <SOIL_ADSORPTION_COEFFICIENT_KOC_L/KG_OPERA_PRED>
40953.6

>  <OCTANOL_WATER_PARTITION_LOGP_OPERA_PRED>
6.63204

>  <MELTING_POINT_DEGC_OPERA_PRED>
277.763

>  <VAPOR_PRESSURE_MMHG_OPERA_PRED>
1.00E-10

>  <WATER_SOLUBILITY_MOL/L_OPERA_PRED>
8.43E-10

>  <Shape Index>
0.36364

>  <Molecular Flexibility>
0

>  <Molecular Complexity>
0.75903

>  <Electronegative Atoms>
0

>  <Stereo Centers>
0

>  <Rotatable Bonds>
0

>  <Rings Closures>
6

>  <Aromatic Rings>
6

>  <Aromatic Atoms>
22

>  <Amides>
0

>  <Amines>
0

>  <Aromatic Nitrogens>
0

>  <Shape Index 2>
0.36364

>  <Molecular Flexibility 2>
0

>  <Molecular Complexity 2>
0.75903

>  <Non-C/H Atoms>
0

>  <Electronegative Atoms 2>
0

>  <Stereo Centers 2>
0

>  <Rotatable Bonds 2>
0

>  <Rings Closures 2>
6

>  <Aromatic Rings 2>
6

>  <Aromatic Atoms 2>
22

>  <sp3-Atoms>
0

>  <Amides 2>
0

>  <Amines 2>
0

>  <Aromatic Nitrogens 2>
0

>  <Basic Nitrogens>
0

$$$$
Anthanthrene
Actelion Java MolfileCreator 2.0

  0  0  0  0  0  0              0 V3000
M  V30 BEGIN CTAB
M  V30 COUNTS 22 27 0 0 0
M  V30 BEGIN ATOM
M  V30 1 C 0.0 0.0 0.0 0
M  V30 2 C -0.0118 -1.491 0.0 0
M  V30 3 C 1.2898 0.7573 0.0 0
M  V30 4 C -1.3135 0.7573 0.0 0
M  V30 5 C -1.3253 -2.2247 0.0 0
M  V30 6 C 1.278 -2.2247 0.0 0
M  V30 7 C 2.5797 0.0236 0.0 0
M  V30 8 C 1.278 2.2721 0.0 0
M  V30 9 C -2.6271 0.0236 0.0 0
M  V30 10 C -1.3253 2.2721 0.0 0
M  V30 11 C -2.6389 -1.4674 0.0 0
M  V30 12 C -1.3372 -3.7158 0.0 0
M  V30 13 C 2.5679 -1.4555 0.0 0
M  V30 14 C 1.2662 -3.7158 0.0 0
M  V30 15 C 3.8696 0.781 0.0 0
M  V30 16 C -0.0355 3.0413 0.0 0
M  V30 17 C 2.5679 3.0294 0.0 0
M  V30 18 C -3.9525 -2.2011 0.0 0
M  V30 19 C -0.0473 -4.4495 0.0 0
M  V30 20 C -2.6507 -4.4495 0.0 0
M  V30 21 C 3.8578 2.2957 0.0 0
M  V30 22 C -3.9643 -3.6921 0.0 0
M  V30 END ATOM
M  V30 BEGIN BOND
M  V30 1 1 1 2
M  V30 2 2 1 3
M  V30 3 1 1 4
M  V30 4 2 2 5
M  V30 5 1 2 6
M  V30 6 1 3 7
M  V30 7 1 3 8
M  V30 8 1 4 9
M  V30 9 2 4 10
M  V30 10 1 5 11
M  V30 11 1 5 12
M  V30 12 2 6 13
M  V30 13 1 6 14
M  V30 14 2 7 15
M  V30 15 2 8 16
M  V30 16 1 8 17
M  V30 17 1 11 18
M  V30 18 1 12 19
M  V30 19 2 12 20
M  V30 20 1 15 21
M  V30 21 2 18 22
M  V30 22 1 7 13
M  V30 23 2 9 11
M  V30 24 1 10 16
M  V30 25 2 14 19
M  V30 26 2 17 21
M  V30 27 1 20 22
M  V30 END BOND
M  V30 END CTAB
M  END
>  <Molecule Name>
Anthanthrene

>  <Order (spectra)>
23

>  <NAME>
Anthanthrene

>  <Molecular Formula>
C22H12

>  <Monoisotopic Mass>
276.0939

>  <SMILES>
C1=CC2=CC3=CC=C4C=CC=C5C=C6C=CC(=C1)C2=C6C3=C45

>  <InChI>
InChI=1S/C22H12/c1-3-13-7-9-18-12-16-6-2-4-14-8-10-17-11-15(5-1)19(13)21(18)22(17)20(14)16/h1-12H

>  <InChIKey>
YFIJJNAKSZUOLT-UHFFFAOYSA-N

>  <Kingdom>
Organic compounds

>  <Superclass>
Benzenoids

>  <Class>
Pyrenes

>  <Subclass>
Benzopyrenes

>  <Parent Level 1>
Benzopyrenes

>  <Parent Level 2>


>  <Parent Level 3>


>  <cLogP>
6.5252

>  <cLogS>
-8.922

>  <Druglikeness>
-2.3575

>  <NP-class probability>
1

>  <SmilesFragFp 3>


>  <MS_READY_SMILES>
C1=CC2=CC3=CC=C4C=CC=C5C=C6C=CC(=C1)C2=C6C3=C45

>  <MS_READY_InChI>
InChI=1S/C22H12/c1-3-13-7-9-18-12-16-6-2-4-14-8-10-17-11-15(5-1)19(13)21(18)22(17)20(14)16/h1-12H

>  <QSAR_READY_SMILES>
C1=CC2=CC3=CC=C4C=CC=C5C=C6C=CC(=C1)C2=C6C3=C45

>  <QSAR_READY_InChI>
InChI=1S/C22H12/c1-3-13-7-9-18-12-16-6-2-4-14-8-10-17-11-15(5-1)19(13)21(18)22(17)20(14)16/h1-12H

>  <DTXSID>
DTXSID9075452

>  <DTXCID>
DTXCID9036010

>  <CASRN>
191-26-4

>  <EXPOCAST_MEDIAN_EXPOSURE_PREDICTION_MG/KG-BW/DAY>
1.67E-06

>  <BIOCONCENTRATION_FACTOR_TEST_PRED>
699.842

>  <BOILING_POINT_DEGC_TEST_PRED>
522.329

>  <48HR_DAPHNIA_LC50_MOL/L_TEST_PRED>
3.38E-07

>  <DENSITY_G/CM^3_TEST_PRED>
1.336

>  <DEVTOX_TEST_PRED>
-

>  <96HR_FATHEAD_MINNOW_MOL/L_TEST_PRED>
-

>  <FLASH_POINT_DEGC_TEST_PRED>
261.512

>  <MELTING_POINT_DEGC_TEST_PRED>
296.949

>  <AMES_MUTAGENICITY_TEST_PRED>
1.058

>  <ORAL_RAT_LD50_MOL/KG_TEST_PRED>
-

>  <SURFACE_TENSION_DYN/CM_TEST_PRED>
-

>  <THERMAL_CONDUCTIVITY_MW/(M*K)_TEST_PRED>
-

>  <TETRAHYMENA_PYRIFORMIS_IGC50_MOL/L_TEST_PRED>
1.91E-06

>  <VISCOSITY_CP_CP_TEST_PRED>
-

>  <VAPOR_PRESSURE_MMHG_TEST_PRED>
1.13E-10

>  <WATER_SOLUBILITY_MOL/L_TEST_PRED>
1.41E-09

>  <ATMOSPHERIC_HYDROXYLATION_RATE_(AOH)_CM3/MOLECULE*SEC_OPERA_PRED>
3.80E-11

>  <BIOCONCENTRATION_FACTOR_OPERA_PRED>
1202.09

>  <BIODEGRADATION_HALF_LIFE_DAYS_DAYS_OPERA_PRED>
454.556

>  <BOILING_POINT_DEGC_OPERA_PRED>
535.958

>  <HENRYS_LAW_ATM-M3/MOLE_OPERA_PRED>
4.56E-07

>  <OPERA_KM_DAYS_OPERA_PRED>
1.63471

>  <OCTANOL_AIR_PARTITION_COEFF_LOGKOA_OPERA_PRED>
11.7243

>  <SOIL_ADSORPTION_COEFFICIENT_KOC_L/KG_OPERA_PRED>
276365

>  <OCTANOL_WATER_PARTITION_LOGP_OPERA_PRED>
7.03762

>  <MELTING_POINT_DEGC_OPERA_PRED>
277.763

>  <VAPOR_PRESSURE_MMHG_OPERA_PRED>
2.11E-10

>  <WATER_SOLUBILITY_MOL/L_OPERA_PRED>
9.55E-10

>  <Shape Index>
0.45455

>  <Molecular Flexibility>
0

>  <Molecular Complexity>
0.76387

>  <Electronegative Atoms>
0

>  <Stereo Centers>
0

>  <Rotatable Bonds>
0

>  <Rings Closures>
6

>  <Aromatic Rings>
6

>  <Aromatic Atoms>
22

>  <Amides>
0

>  <Amines>
0

>  <Aromatic Nitrogens>
0

>  <Shape Index 2>
0.45455

>  <Molecular Flexibility 2>
0

>  <Molecular Complexity 2>
0.76387

>  <Non-C/H Atoms>
0

>  <Electronegative Atoms 2>
0

>  <Stereo Centers 2>
0

>  <Rotatable Bonds 2>
0

>  <Rings Closures 2>
6

>  <Aromatic Rings 2>
6

>  <Aromatic Atoms 2>
22

>  <sp3-Atoms>
0

>  <Amides 2>
0

>  <Amines 2>
0

>  <Aromatic Nitrogens 2>
0

>  <Basic Nitrogens>
0

$$$$
Coronene
Actelion Java MolfileCreator 2.0

  0  0  0  0  0  0              0 V3000
M  V30 BEGIN CTAB
M  V30 COUNTS 24 30 0 0 0
M  V30 BEGIN ATOM
M  V30 1 C 0.0 0.0 0.0 0
M  V30 2 C -0.0118 -1.4942 0.0 0
M  V30 3 C 1.2926 0.7589 0.0 0
M  V30 4 C -1.3163 0.7589 0.0 0
M  V30 5 C 1.2808 -2.2295 0.0 0
M  V30 6 C -1.3282 -2.2295 0.0 0
M  V30 7 C 2.5853 0.0237 0.0 0
M  V30 8 C 1.2808 2.2769 0.0 0
M  V30 9 C -2.6327 0.0237 0.0 0
M  V30 10 C -1.3282 2.2769 0.0 0
M  V30 11 C 2.5734 -1.4587 0.0 0
M  V30 12 C 1.2689 -3.7238 0.0 0
M  V30 13 C -2.6446 -1.4705 0.0 0
M  V30 14 C -1.3401 -3.7238 0.0 0
M  V30 15 C 3.878 0.7827 0.0 0
M  V30 16 C -0.0355 3.0359 0.0 0
M  V30 17 C 2.5734 3.0478 0.0 0
M  V30 18 C 3.8661 -2.1939 0.0 0
M  V30 19 C -0.0474 -4.4591 0.0 0
M  V30 20 C 2.5616 -4.4591 0.0 0
M  V30 21 C 3.8661 2.3007 0.0 0
M  V30 22 C 5.1706 0.0474 0.0 0
M  V30 23 C 3.8542 -3.6882 0.0 0
M  V30 24 C 5.1588 -1.4349 0.0 0
M  V30 END ATOM
M  V30 BEGIN BOND
M  V30 1 2 1 2
M  V30 2 1 1 3
M  V30 3 1 1 4
M  V30 4 1 2 5
M  V30 5 1 2 6
M  V30 6 2 3 7
M  V30 7 1 3 8
M  V30 8 1 4 9
M  V30 9 2 4 10
M  V30 10 2 5 11
M  V30 11 1 5 12
M  V30 12 1 6 13
M  V30 13 2 6 14
M  V30 14 1 7 15
M  V30 15 2 8 16
M  V30 16 1 8 17
M  V30 17 1 11 18
M  V30 18 2 12 19
M  V30 19 1 12 20
M  V30 20 1 15 21
M  V30 21 2 15 22
M  V30 22 1 18 23
M  V30 23 2 18 24
M  V30 24 1 7 11
M  V30 25 2 9 13
M  V30 26 1 10 16
M  V30 27 1 14 19
M  V30 28 2 17 21
M  V30 29 2 20 23
M  V30 30 1 22 24
M  V30 END BOND
M  V30 END CTAB
M  END
>  <Molecule Name>
Coronene

>  <Order (spectra)>
25

>  <NAME>
Coronene

>  <Molecular Formula>
C24H12

>  <Monoisotopic Mass>
300.0939

>  <SMILES>
C1=CC2=C3C4=C1C=CC1=C4C4=C(C=C1)C=CC1=C4C3=C(C=C2)C=C1

>  <InChI>
InChI=1S/C24H12/c1-2-14-5-6-16-9-11-18-12-10-17-8-7-15-4-3-13(1)19-20(14)22(16)24(18)23(17)21(15)19/h1-12H

>  <InChIKey>
VPUGDVKSAQVFFS-UHFFFAOYSA-N

>  <Kingdom>
Organic compounds

>  <Superclass>
Benzenoids

>  <Class>
Pyrenes

>  <Subclass>
Benzopyrenes

>  <Parent Level 1>
Benzopyrenes

>  <Parent Level 2>


>  <Parent Level 3>


>  <cLogP>
7.1664

>  <cLogS>
-10.166

>  <Druglikeness>
-2.3575

>  <NP-class probability>
1

>  <SmilesFragFp 3>


>  <MS_READY_SMILES>
C1=CC2=C3C4=C1C=CC1=C4C4=C(C=C1)C=CC1=C4C3=C(C=C2)C=C1

>  <MS_READY_InChI>
InChI=1S/C24H12/c1-2-14-5-6-16-9-11-18-12-10-17-8-7-15-4-3-13(1)19-20(14)22(16)24(18)23(17)21(15)19/h1-12H

>  <QSAR_READY_SMILES>
C1=CC2=C3C4=C1C=CC1=C4C4=C(C=C1)C=CC1=C4C3=C(C=C2)C=C1

>  <QSAR_READY_InChI>
InChI=1S/C24H12/c1-2-14-5-6-16-9-11-18-12-10-17-8-7-15-4-3-13(1)19-20(14)22(16)24(18)23(17)21(15)19/h1-12H

>  <DTXSID>
DTXSID5047740

>  <DTXCID>
DTXCID5027724

>  <CASRN>
191-07-1

>  <EXPOCAST_MEDIAN_EXPOSURE_PREDICTION_MG/KG-BW/DAY>
1.37E-06

>  <BIOCONCENTRATION_FACTOR_TEST_PRED>
909.913

>  <BOILING_POINT_DEGC_TEST_PRED>
549.623

>  <48HR_DAPHNIA_LC50_MOL/L_TEST_PRED>
2.51E-07

>  <DENSITY_G/CM^3_TEST_PRED>
1.369

>  <DEVTOX_TEST_PRED>
-

>  <96HR_FATHEAD_MINNOW_MOL/L_TEST_PRED>
-

>  <FLASH_POINT_DEGC_TEST_PRED>
305.959

>  <MELTING_POINT_DEGC_TEST_PRED>
363.449

>  <AMES_MUTAGENICITY_TEST_PRED>
1.088

>  <ORAL_RAT_LD50_MOL/KG_TEST_PRED>
-

>  <SURFACE_TENSION_DYN/CM_TEST_PRED>
-

>  <THERMAL_CONDUCTIVITY_MW/(M*K)_TEST_PRED>
-

>  <TETRAHYMENA_PYRIFORMIS_IGC50_MOL/L_TEST_PRED>
1.19E-06

>  <VISCOSITY_CP_CP_TEST_PRED>
-

>  <VAPOR_PRESSURE_MMHG_TEST_PRED>
7.28E-13

>  <WATER_SOLUBILITY_MOL/L_TEST_PRED>
8.81E-09

>  <ATMOSPHERIC_HYDROXYLATION_RATE_(AOH)_CM3/MOLECULE*SEC_OPERA_PRED>
2.18E-11

>  <BIOCONCENTRATION_FACTOR_OPERA_PRED>
1338.41

>  <BIODEGRADATION_HALF_LIFE_DAYS_DAYS_OPERA_PRED>
732.681

>  <BOILING_POINT_DEGC_OPERA_PRED>
525.002

>  <HENRYS_LAW_ATM-M3/MOLE_OPERA_PRED>
1.04E-06

>  <OPERA_KM_DAYS_OPERA_PRED>
1.53314

>  <OCTANOL_AIR_PARTITION_COEFF_LOGKOA_OPERA_PRED>
11.6866

>  <SOIL_ADSORPTION_COEFFICIENT_KOC_L/KG_OPERA_PRED>
100373

>  <OCTANOL_WATER_PARTITION_LOGP_OPERA_PRED>
7.63866

>  <MELTING_POINT_DEGC_OPERA_PRED>
436.928

>  <VAPOR_PRESSURE_MMHG_OPERA_PRED>
2.18E-12

>  <WATER_SOLUBILITY_MOL/L_OPERA_PRED>
4.51E-10

>  <Shape Index>
0.33333

>  <Molecular Flexibility>
0

>  <Molecular Complexity>
0.82225

>  <Electronegative Atoms>
0

>  <Stereo Centers>
0

>  <Rotatable Bonds>
0

>  <Rings Closures>
7

>  <Aromatic Rings>
7

>  <Aromatic Atoms>
24

>  <Amides>
0

>  <Amines>
0

>  <Aromatic Nitrogens>
0

>  <Shape Index 2>
0.33333

>  <Molecular Flexibility 2>
0

>  <Molecular Complexity 2>
0.82225

>  <Non-C/H Atoms>
0

>  <Electronegative Atoms 2>
0

>  <Stereo Centers 2>
0

>  <Rotatable Bonds 2>
0

>  <Rings Closures 2>
7

>  <Aromatic Rings 2>
7

>  <Aromatic Atoms 2>
24

>  <sp3-Atoms>
0

>  <Amides 2>
0

>  <Amines 2>
0

>  <Aromatic Nitrogens 2>
0

>  <Basic Nitrogens>
0

$$$$
Chlorpyrifos oxon
Actelion Java MolfileCreator 2.0

  0  0  0  0  0  0              0 V3000
M  V30 BEGIN CTAB
M  V30 COUNTS 18 18 0 0 0
M  V30 BEGIN ATOM
M  V30 1 Cl 0.0 0.0 0.0 0
M  V30 2 C -1.3079 0.7541 0.0 0
M  V30 3 N -2.6158 0.0117 0.0 0
M  V30 4 C -1.3197 2.2623 0.0 0
M  V30 5 C -3.9237 0.7659 0.0 0
M  V30 6 Cl -0.0353 3.0164 0.0 0
M  V30 7 C -2.6276 3.0164 0.0 0
M  V30 8 O -5.2317 0.0235 0.0 0
M  V30 9 C -3.9355 2.2741 0.0 0
M  V30 10 P -5.2434 -1.4611 0.0 0
M  V30 11 Cl -5.2434 3.0282 0.0 0
M  V30 12 O -5.2552 -2.9457 0.0 0
M  V30 13 O -3.9591 -2.2034 0.0 0
M  V30 14 O -6.5514 -2.2034 0.0 0
M  V30 15 C -2.6747 -1.4493 0.0 0
M  V30 16 C -7.8593 -1.4493 0.0 0
M  V30 17 C -1.3904 -2.1916 0.0 0
M  V30 18 C -9.1672 -2.1916 0.0 0
M  V30 END ATOM
M  V30 BEGIN BOND
M  V30 1 1 1 2
M  V30 2 2 2 3
M  V30 3 1 2 4
M  V30 4 1 3 5
M  V30 5 1 4 6
M  V30 6 2 4 7
M  V30 7 1 5 8
M  V30 8 2 5 9
M  V30 9 1 8 10
M  V30 10 1 9 11
M  V30 11 2 10 12
M  V30 12 1 10 13
M  V30 13 1 10 14
M  V30 14 1 13 15
M  V30 15 1 14 16
M  V30 16 1 15 17
M  V30 17 1 16 18
M  V30 18 1 7 9
M  V30 END BOND
M  V30 END CTAB
M  END
>  <Molecule Name>
Chlorpyrifos oxon

>  <Order (spectra)>
88

>  <NAME>
Chlorpyrifos oxon

>  <Molecular Formula>
C9H11NO4Cl3P

>  <Monoisotopic Mass>
332.949127

>  <SMILES>
CCOP(=O)(OCC)OC1=NC(Cl)=C(Cl)C=C1Cl

>  <InChI>
InChI=1S/C9H11Cl3NO4P/c1-3-15-18(14,16-4-2)17-9-7(11)5-6(10)8(12)13-9/h5H,3-4H2,1-2H3

>  <InChIKey>
OTMOUPHCTWPNSL-UHFFFAOYSA-N

>  <Kingdom>
Organic compounds

>  <Superclass>
Organoheterocyclic compounds

>  <Class>
Pyridines and derivatives

>  <Subclass>
Halopyridines

>  <Parent Level 1>
Polyhalopyridines

>  <Parent Level 2>


>  <Parent Level 3>


>  <cLogP>
3.0268

>  <cLogS>
-3.621

>  <Druglikeness>
-21.035

>  <NP-class probability>
0.14

>  <SmilesFragFp 3>


>  <MS_READY_SMILES>
CCOP(=O)(OCC)OC1=NC(Cl)=C(Cl)C=C1Cl

>  <MS_READY_InChI>
InChI=1S/C9H11Cl3NO4P/c1-3-15-18(14,16-4-2)17-9-7(11)5-6(10)8(12)13-9/h5H,3-4H2,1-2H3

>  <QSAR_READY_SMILES>
CCOP(=O)(OCC)OC1=NC(Cl)=C(Cl)C=C1Cl

>  <QSAR_READY_InChI>
InChI=1S/C9H11Cl3NO4P/c1-3-15-18(14,16-4-2)17-9-7(11)5-6(10)8(12)13-9/h5H,3-4H2,1-2H3

>  <DTXSID>
DTXSID1038666

>  <DTXCID>
DTXCID9018666

>  <CASRN>
5598-15-2

>  <EXPOCAST_MEDIAN_EXPOSURE_PREDICTION_MG/KG-BW/DAY>
3.76E-07

>  <BIOCONCENTRATION_FACTOR_TEST_PRED>
109.144

>  <BOILING_POINT_DEGC_TEST_PRED>
333.938

>  <48HR_DAPHNIA_LC50_MOL/L_TEST_PRED>
7.28E-08

>  <DENSITY_G/CM^3_TEST_PRED>
1.477

>  <DEVTOX_TEST_PRED>
0.821

>  <96HR_FATHEAD_MINNOW_MOL/L_TEST_PRED>
4.60E-07

>  <FLASH_POINT_DEGC_TEST_PRED>
189.33

>  <MELTING_POINT_DEGC_TEST_PRED>
49.574

>  <AMES_MUTAGENICITY_TEST_PRED>
0.496

>  <ORAL_RAT_LD50_MOL/KG_TEST_PRED>
0.00157036

>  <SURFACE_TENSION_DYN/CM_TEST_PRED>
-

>  <THERMAL_CONDUCTIVITY_MW/(M*K)_TEST_PRED>
-

>  <TETRAHYMENA_PYRIFORMIS_IGC50_MOL/L_TEST_PRED>
0.000157036

>  <VISCOSITY_CP_CP_TEST_PRED>
17.378

>  <VAPOR_PRESSURE_MMHG_TEST_PRED>
5.40E-06

>  <WATER_SOLUBILITY_MOL/L_TEST_PRED>
0.000210378

>  <ATMOSPHERIC_HYDROXYLATION_RATE_(AOH)_CM3/MOLECULE*SEC_OPERA_PRED>
1.48E-11

>  <BIOCONCENTRATION_FACTOR_OPERA_PRED>
45.793

>  <BIODEGRADATION_HALF_LIFE_DAYS_DAYS_OPERA_PRED>
4.13837

>  <BOILING_POINT_DEGC_OPERA_PRED>
338.697

>  <HENRYS_LAW_ATM-M3/MOLE_OPERA_PRED>
3.74E-07

>  <OPERA_KM_DAYS_OPERA_PRED>
0.352682

>  <OCTANOL_AIR_PARTITION_COEFF_LOGKOA_OPERA_PRED>
9.46095

>  <SOIL_ADSORPTION_COEFFICIENT_KOC_L/KG_OPERA_PRED>
688.667

>  <OCTANOL_WATER_PARTITION_LOGP_OPERA_PRED>
3.19947

>  <MELTING_POINT_DEGC_OPERA_PRED>
55.5681

>  <VAPOR_PRESSURE_MMHG_OPERA_PRED>
0.000012805

>  <WATER_SOLUBILITY_MOL/L_OPERA_PRED>
0.000226021

>  <Shape Index>
0.55556

>  <Molecular Flexibility>
0.67387

>  <Molecular Complexity>
0.71389

>  <Electronegative Atoms>
9

>  <Stereo Centers>
0

>  <Rotatable Bonds>
6

>  <Rings Closures>
1

>  <Aromatic Rings>
1

>  <Aromatic Atoms>
6

>  <Amides>
0

>  <Amines>
0

>  <Aromatic Nitrogens>
1

>  <Shape Index 2>
0.55556

>  <Molecular Flexibility 2>
0.67387

>  <Molecular Complexity 2>
0.71389

>  <Non-C/H Atoms>
9

>  <Electronegative Atoms 2>
9

>  <Stereo Centers 2>
0

>  <Rotatable Bonds 2>
6

>  <Rings Closures 2>
1

>  <Aromatic Rings 2>
1

>  <Aromatic Atoms 2>
6

>  <sp3-Atoms>
8

>  <Amides 2>
0

>  <Amines 2>
0

>  <Aromatic Nitrogens 2>
1

>  <Basic Nitrogens>
0

$$$$
17-alpha-Ethynylestradiol
Actelion Java MolfileCreator 2.0

  0  0  0  0  0  0              0 V3000
M  V30 BEGIN CTAB
M  V30 COUNTS 22 25 0 0 0
M  V30 BEGIN ATOM
M  V30 1 O 0.0 0.0 0.0 0
M  V30 2 C -0.1651 -1.4866 0.0 0
M  V30 3 C 1.0382 -2.3597 0.0 0
M  V30 4 C -1.5574 -2.0883 0.0 0
M  V30 5 C 0.8731 -3.8464 0.0 0
M  V30 6 C -1.7226 -3.575 0.0 0
M  V30 7 C -0.5191 -4.4481 0.0 0
M  V30 8 C 2.0765 -4.7195 0.0 0
M  V30 9 C -0.6843 -5.9347 0.0 0 CFG=2
M  V30 10 C 1.9114 -6.2061 0.0 0
M  V30 11 C 0.5191 -6.8078 0.0 0 CFG=1
M  V30 12 C -2.0765 -6.5365 0.0 0
M  V30 13 C 0.3539 -8.2945 0.0 0 CFG=1
M  V30 14 C -2.2417 -8.0231 0.0 0
M  V30 15 C -1.0382 -8.8962 0.0 0 CFG=2
M  V30 16 C 1.345 -9.4036 0.0 0
M  V30 17 C -0.8967 -10.3829 0.0 0 CFG=2
M  V30 18 C -2.3597 -9.6396 0.0 0
M  V30 19 C 0.5781 -10.7014 0.0 0
M  V30 20 O -0.5191 -11.8223 0.0 0
M  V30 21 C -2.0293 -11.374 0.0 0
M  V30 22 C -3.162 -12.3651 0.0 0
M  V30 END ATOM
M  V30 BEGIN BOND
M  V30 1 1 1 2
M  V30 2 2 2 3
M  V30 3 1 2 4
M  V30 4 1 3 5
M  V30 5 2 4 6
M  V30 6 2 5 7
M  V30 7 1 5 8
M  V30 8 1 7 9
M  V30 9 1 8 10
M  V30 10 1 9 11
M  V30 11 1 9 12 CFG=3
M  V30 12 1 11 13
M  V30 13 1 12 14
M  V30 14 1 13 15
M  V30 15 1 13 16 CFG=3
M  V30 16 1 15 17
M  V30 17 1 15 18 CFG=3
M  V30 18 1 16 19
M  V30 19 1 17 20 CFG=3
M  V30 20 1 17 21
M  V30 21 3 21 22
M  V30 22 1 6 7
M  V30 23 1 11 10 CFG=1
M  V30 24 1 14 15
M  V30 25 1 17 19
M  V30 END BOND
M  V30 BEGIN COLLECTION
M  V30 MDLV30/STEABS ATOMS=(5 9 11 13 15 17)
M  V30 END COLLECTION
M  V30 END CTAB
M  END
>  <Molecule Name>
17-alpha-Ethynylestradiol

>  <Order (spectra)>
363

>  <NAME>
17-alpha-Ethynylestradiol

>  <Molecular Formula>
C20H24O2

>  <Monoisotopic Mass>
296.17763

>  <SMILES>
[H][C@@]12CC[C@@](O)(C#C)[C@@]1(C)CC[C@]1([H])C3=C(CC[C@@]21[H])C=C(O)C=C3

>  <InChI>
InChI=1S/C20H24O2/c1-3-20(22)11-9-18-17-6-4-13-12-14(21)5-7-15(13)16(17)8-10-19(18,20)2/h1,5,7,12,16-18,21-22H,4,6,8-11H2,2H3/t16-,17+,18+,19+,20+/m1/s1

>  <InChIKey>
BFPYWIDHMRZLRN-SLHNCBLASA-N

>  <Kingdom>
Organic compounds

>  <Superclass>
Lipids and lipid-like molecules

>  <Class>
Steroids and steroid derivatives

>  <Subclass>
Estrane steroids

>  <Parent Level 1>
Estrogens and derivatives

>  <Parent Level 2>


>  <Parent Level 3>


>  <cLogP>
3.7955

>  <cLogS>
-4.453

>  <Druglikeness>
0.68189

>  <NP-class probability>
0.97

>  <SmilesFragFp 3>


>  <MS_READY_SMILES>
CC12CCC3C(CCC4=C3C=CC(O)=C4)C1CCC2(O)C#C

>  <MS_READY_InChI>
InChI=1S/C20H24O2/c1-3-20(22)11-9-18-17-6-4-13-12-14(21)5-7-15(13)16(17)8-10-19(18,20)2/h1,5,7,12,16-18,21-22H,4,6,8-11H2,2H3

>  <QSAR_READY_SMILES>
CC12CCC3C(CCC4=C3C=CC(O)=C4)C1CCC2(O)C#C

>  <QSAR_READY_InChI>
InChI=1S/C20H24O2/c1-3-20(22)11-9-18-17-6-4-13-12-14(21)5-7-15(13)16(17)8-10-19(18,20)2/h1,5,7,12,16-18,21-22H,4,6,8-11H2,2H3

>  <DTXSID>
DTXSID5020576

>  <DTXCID>
DTXCID70576

>  <CASRN>
57-63-6

>  <EXPOCAST_MEDIAN_EXPOSURE_PREDICTION_MG/KG-BW/DAY>
-

>  <BIOCONCENTRATION_FACTOR_TEST_PRED>
-

>  <BOILING_POINT_DEGC_TEST_PRED>
383.097

>  <48HR_DAPHNIA_LC50_MOL/L_TEST_PRED>
-

>  <DENSITY_G/CM^3_TEST_PRED>
1.156

>  <DEVTOX_TEST_PRED>
1

>  <96HR_FATHEAD_MINNOW_MOL/L_TEST_PRED>
3.41E-06

>  <FLASH_POINT_DEGC_TEST_PRED>
203.389

>  <MELTING_POINT_DEGC_TEST_PRED>
181.314

>  <AMES_MUTAGENICITY_TEST_PRED>
0

>  <ORAL_RAT_LD50_MOL/KG_TEST_PRED>
0.00797995

>  <SURFACE_TENSION_DYN/CM_TEST_PRED>
46.83

>  <THERMAL_CONDUCTIVITY_MW/(M*K)_TEST_PRED>
144.184

>  <TETRAHYMENA_PYRIFORMIS_IGC50_MOL/L_TEST_PRED>
6.03E-06

>  <VISCOSITY_CP_CP_TEST_PRED>
-

>  <VAPOR_PRESSURE_MMHG_TEST_PRED>
1.27E-08

>  <WATER_SOLUBILITY_MOL/L_TEST_PRED>
1.26E-05

>  <ATMOSPHERIC_HYDROXYLATION_RATE_(AOH)_CM3/MOLECULE*SEC_OPERA_PRED>
2.83E-11

>  <BIOCONCENTRATION_FACTOR_OPERA_PRED>
183.855

>  <BIODEGRADATION_HALF_LIFE_DAYS_DAYS_OPERA_PRED>
97.7868

>  <BOILING_POINT_DEGC_OPERA_PRED>
390.395

>  <HENRYS_LAW_ATM-M3/MOLE_OPERA_PRED>
9.44E-08

>  <OPERA_KM_DAYS_OPERA_PRED>
0.622234

>  <OCTANOL_AIR_PARTITION_COEFF_LOGKOA_OPERA_PRED>
9.19849

>  <SOIL_ADSORPTION_COEFFICIENT_KOC_L/KG_OPERA_PRED>
515331

>  <OCTANOL_WATER_PARTITION_LOGP_OPERA_PRED>
3.6691

>  <MELTING_POINT_DEGC_OPERA_PRED>
183.064

>  <VAPOR_PRESSURE_MMHG_OPERA_PRED>
7.38E-10

>  <WATER_SOLUBILITY_MOL/L_OPERA_PRED>
3.94E-05

>  <Shape Index>
0.54545

>  <Molecular Flexibility>
0.10145

>  <Molecular Complexity>
0.92127

>  <Electronegative Atoms>
2

>  <Stereo Centers>
5

>  <Rotatable Bonds>
0

>  <Rings Closures>
4

>  <Aromatic Rings>
1

>  <Aromatic Atoms>
6

>  <Amides>
0

>  <Amines>
0

>  <Aromatic Nitrogens>
0

>  <Shape Index 2>
0.54545

>  <Molecular Flexibility 2>
0.10145

>  <Molecular Complexity 2>
0.92127

>  <Non-C/H Atoms>
2

>  <Electronegative Atoms 2>
2

>  <Stereo Centers 2>
5

>  <Rotatable Bonds 2>
0

>  <Rings Closures 2>
4

>  <Aromatic Rings 2>
1

>  <Aromatic Atoms 2>
6

>  <sp3-Atoms>
14

>  <Amides 2>
0

>  <Amines 2>
0

>  <Aromatic Nitrogens 2>
0

>  <Basic Nitrogens>
0

$$$$
Estrone
Actelion Java MolfileCreator 2.0

  0  0  0  0  0  0              0 V3000
M  V30 BEGIN CTAB
M  V30 COUNTS 20 23 0 0 0
M  V30 BEGIN ATOM
M  V30 1 O 0.0 0.0 0.0 0
M  V30 2 C -1.3092 -0.7364 0.0 0
M  V30 3 C -2.6886 -0.1168 0.0 0 CFG=2
M  V30 4 C -1.4729 -2.2093 0.0 0
M  V30 5 C -3.6939 -1.2157 0.0 0 CFG=1
M  V30 6 C -3.1562 1.3092 0.0 0
M  V30 7 C -1.5898 0.8884 0.0 0
M  V30 8 C -2.9458 -2.5132 0.0 0
M  V30 9 C -5.1668 -0.8884 0.0 0 CFG=1
M  V30 10 C -4.6291 1.6365 0.0 0
M  V30 11 C -5.6344 0.5377 0.0 0 CFG=2
M  V30 12 C -6.1721 -1.9872 0.0 0
M  V30 13 C -7.1073 0.865 0.0 0
M  V30 14 C -7.645 -1.6599 0.0 0
M  V30 15 C -8.1126 -0.2337 0.0 0
M  V30 16 C -7.5749 2.2911 0.0 0
M  V30 17 C -9.5855 0.0935 0.0 0
M  V30 18 C -9.0478 2.6184 0.0 0
M  V30 19 C -10.0531 1.5196 0.0 0
M  V30 20 O -11.526 1.8469 0.0 0
M  V30 END ATOM
M  V30 BEGIN BOND
M  V30 1 2 1 2
M  V30 2 1 2 3
M  V30 3 1 2 4
M  V30 4 1 3 5
M  V30 5 1 3 6
M  V30 6 1 3 7 CFG=1
M  V30 7 1 4 8
M  V30 8 1 5 9
M  V30 9 1 6 10
M  V30 10 1 9 11
M  V30 11 1 9 12 CFG=3
M  V30 12 1 11 13
M  V30 13 1 12 14
M  V30 14 2 13 15
M  V30 15 1 13 16
M  V30 16 1 15 17
M  V30 17 2 16 18
M  V30 18 2 17 19
M  V30 19 1 19 20
M  V30 20 1 5 8 CFG=1
M  V30 21 1 11 10 CFG=1
M  V30 22 1 14 15
M  V30 23 1 18 19
M  V30 END BOND
M  V30 BEGIN COLLECTION
M  V30 MDLV30/STEABS ATOMS=(4 3 5 9 11)
M  V30 END COLLECTION
M  V30 END CTAB
M  END
>  <Molecule Name>
Estrone

>  <Order (spectra)>
366

>  <NAME>
Estrone

>  <Molecular Formula>
C18H22O2

>  <Monoisotopic Mass>
270.16198

>  <SMILES>
[H][C@@]12CCC(=O)[C@@]1(C)CC[C@]1([H])C3=C(CC[C@@]21[H])C=C(O)C=C3

>  <InChI>
InChI=1S/C18H22O2/c1-18-9-8-14-13-5-3-12(19)10-11(13)2-4-15(14)16(18)6-7-17(18)20/h3,5,10,14-16,19H,2,4,6-9H2,1H3/t14-,15+,16+,18-/m0/s1

>  <InChIKey>
DNXHEGUUPJUMQT-CBZIJGRNSA-N

>  <Kingdom>
Organic compounds

>  <Superclass>
Lipids and lipid-like molecules

>  <Class>
Steroids and steroid derivatives

>  <Subclass>
Estrane steroids

>  <Parent Level 1>
Estrogens and derivatives

>  <Parent Level 2>


>  <Parent Level 3>


>  <cLogP>
4.0203

>  <cLogS>
-4.071

>  <Druglikeness>
-0.41823

>  <NP-class probability>
1

>  <SmilesFragFp 3>


>  <MS_READY_SMILES>
CC12CCC3C(CCC4=C3C=CC(O)=C4)C1CCC2=O

>  <MS_READY_InChI>
InChI=1S/C18H22O2/c1-18-9-8-14-13-5-3-12(19)10-11(13)2-4-15(14)16(18)6-7-17(18)20/h3,5,10,14-16,19H,2,4,6-9H2,1H3

>  <QSAR_READY_SMILES>
CC12CCC3C(CCC4=C3C=CC(O)=C4)C1CCC2=O

>  <QSAR_READY_InChI>
InChI=1S/C18H22O2/c1-18-9-8-14-13-5-3-12(19)10-11(13)2-4-15(14)16(18)6-7-17(18)20/h3,5,10,14-16,19H,2,4,6-9H2,1H3

>  <DTXSID>
DTXSID4022367

>  <DTXCID>
DTXCID402367

>  <CASRN>
53-16-7

>  <EXPOCAST_MEDIAN_EXPOSURE_PREDICTION_MG/KG-BW/DAY>
1.24E-06

>  <BIOCONCENTRATION_FACTOR_TEST_PRED>
168.655

>  <BOILING_POINT_DEGC_TEST_PRED>
370.894

>  <48HR_DAPHNIA_LC50_MOL/L_TEST_PRED>
1.33E-05

>  <DENSITY_G/CM^3_TEST_PRED>
1.148

>  <DEVTOX_TEST_PRED>
0.904

>  <96HR_FATHEAD_MINNOW_MOL/L_TEST_PRED>
3.97E-06

>  <FLASH_POINT_DEGC_TEST_PRED>
198.298

>  <MELTING_POINT_DEGC_TEST_PRED>
193.352

>  <AMES_MUTAGENICITY_TEST_PRED>
0.258

>  <ORAL_RAT_LD50_MOL/KG_TEST_PRED>
0.00345939

>  <SURFACE_TENSION_DYN/CM_TEST_PRED>
44.675

>  <THERMAL_CONDUCTIVITY_MW/(M*K)_TEST_PRED>
129.746

>  <TETRAHYMENA_PYRIFORMIS_IGC50_MOL/L_TEST_PRED>
7.19E-06

>  <VISCOSITY_CP_CP_TEST_PRED>
-

>  <VAPOR_PRESSURE_MMHG_TEST_PRED>
3.28E-08

>  <WATER_SOLUBILITY_MOL/L_TEST_PRED>
4.01E-05

>  <ATMOSPHERIC_HYDROXYLATION_RATE_(AOH)_CM3/MOLECULE*SEC_OPERA_PRED>
2.71E-11

>  <BIOCONCENTRATION_FACTOR_OPERA_PRED>
65.8211

>  <BIODEGRADATION_HALF_LIFE_DAYS_DAYS_OPERA_PRED>
95.167

>  <BOILING_POINT_DEGC_OPERA_PRED>
336.617

>  <HENRYS_LAW_ATM-M3/MOLE_OPERA_PRED>
1.05E-09

>  <OPERA_KM_DAYS_OPERA_PRED>
2.11488

>  <OCTANOL_AIR_PARTITION_COEFF_LOGKOA_OPERA_PRED>
10.9598

>  <SOIL_ADSORPTION_COEFFICIENT_KOC_L/KG_OPERA_PRED>
361153

>  <OCTANOL_WATER_PARTITION_LOGP_OPERA_PRED>
3.13238

>  <MELTING_POINT_DEGC_OPERA_PRED>
260.067

>  <VAPOR_PRESSURE_MMHG_OPERA_PRED>
1.09E-09

>  <WATER_SOLUBILITY_MOL/L_OPERA_PRED>
0.000026559

>  <Shape Index>
0.55

>  <Molecular Flexibility>
0.11198

>  <Molecular Complexity>
0.88286

>  <Electronegative Atoms>
2

>  <Stereo Centers>
4

>  <Rotatable Bonds>
0

>  <Rings Closures>
4

>  <Aromatic Rings>
1

>  <Aromatic Atoms>
6

>  <Amides>
0

>  <Amines>
0

>  <Aromatic Nitrogens>
0

>  <Shape Index 2>
0.55

>  <Molecular Flexibility 2>
0.11198

>  <Molecular Complexity 2>
0.88286

>  <Non-C/H Atoms>
2

>  <Electronegative Atoms 2>
2

>  <Stereo Centers 2>
4

>  <Rotatable Bonds 2>
0

>  <Rings Closures 2>
4

>  <Aromatic Rings 2>
1

>  <Aromatic Atoms 2>
6

>  <sp3-Atoms>
12

>  <Amides 2>
0

>  <Amines 2>
0

>  <Aromatic Nitrogens 2>
0

>  <Basic Nitrogens>
0

$$$$
17-beta-Estradiol
Actelion Java MolfileCreator 2.0

  0  0  0  0  0  0              0 V3000
M  V30 BEGIN CTAB
M  V30 COUNTS 20 23 0 0 0
M  V30 BEGIN ATOM
M  V30 1 O 0.0 0.0 0.0 0
M  V30 2 C -0.1651 -1.4863 0.0 0
M  V30 3 C 1.038 -2.3592 0.0 0
M  V30 4 C -1.5571 -2.0879 0.0 0
M  V30 5 C 0.8729 -3.8456 0.0 0
M  V30 6 C -1.7222 -3.5743 0.0 0
M  V30 7 C -0.519 -4.4472 0.0 0
M  V30 8 C 2.0761 -4.7185 0.0 0
M  V30 9 C -0.6841 -5.9336 0.0 0 CFG=2
M  V30 10 C 1.911 -6.2049 0.0 0
M  V30 11 C 0.519 -6.8065 0.0 0
M  V30 12 C -2.0761 -6.5352 0.0 0
M  V30 13 C 0.3538 -8.2929 0.0 0 CFG=1
M  V30 14 C -2.2413 -8.0215 0.0 0
M  V30 15 C -1.038 -8.8945 0.0 0 CFG=2
M  V30 16 C 1.3447 -9.4017 0.0 0
M  V30 17 C -0.8965 -10.3808 0.0 0 CFG=2
M  V30 18 C -2.3592 -9.6377 0.0 0
M  V30 19 C 0.578 -10.6993 0.0 0
M  V30 20 O -2.0289 -11.3717 0.0 0
M  V30 END ATOM
M  V30 BEGIN BOND
M  V30 1 1 1 2
M  V30 2 2 2 3
M  V30 3 1 2 4
M  V30 4 1 3 5
M  V30 5 2 4 6
M  V30 6 2 5 7
M  V30 7 1 5 8
M  V30 8 1 7 9
M  V30 9 1 8 10
M  V30 10 1 9 11
M  V30 11 1 9 12 CFG=3
M  V30 12 1 11 13
M  V30 13 1 12 14
M  V30 14 1 13 15
M  V30 15 1 13 16 CFG=3
M  V30 16 1 15 17
M  V30 17 1 15 18 CFG=3
M  V30 18 1 16 19
M  V30 19 1 17 20 CFG=3
M  V30 20 1 6 7
M  V30 21 1 10 11
M  V30 22 1 14 15
M  V30 23 1 17 19
M  V30 END BOND
M  V30 BEGIN COLLECTION
M  V30 MDLV30/STEABS ATOMS=(4 9 13 15 17)
M  V30 END COLLECTION
M  V30 END CTAB
M  END
>  <Molecule Name>
17-beta-Estradiol

>  <Order (spectra)>
367

>  <NAME>
17-beta-Estradiol

>  <Molecular Formula>
C18H24O2

>  <Monoisotopic Mass>
272.17763

>  <SMILES>
[H][C@@]12CC[C@H](O)[C@@]1(C)CC[C@]1([H])C3=CC=C(O)C=C3CC[C@@]21[H]

>  <InChI>
InChI=1S/C18H24O2/c1-18-9-8-14-13-5-3-12(19)10-11(13)2-4-15(14)16(18)6-7-17(18)20/h3,5,10,14-17,19-20H,2,4,6-9H2,1H3/t14-,15?,16+,17-,18+/m1/s1

>  <InChIKey>
VOXZDWNPVJITMN-ZBRFXRBCSA-N

>  <Kingdom>
Organic compounds

>  <Superclass>
Lipids and lipid-like molecules

>  <Class>
Steroids and steroid derivatives

>  <Subclass>
Estrane steroids

>  <Parent Level 1>
Estrogens and derivatives

>  <Parent Level 2>


>  <Parent Level 3>


>  <cLogP>
3.8766

>  <cLogS>
-4.02

>  <Druglikeness>
0.10838

>  <NP-class probability>
1

>  <SmilesFragFp 3>


>  <MS_READY_SMILES>
CC12CCC3C(CCC4=C3C=CC(O)=C4)C1CCC2O

>  <MS_READY_InChI>
InChI=1S/C18H24O2/c1-18-9-8-14-13-5-3-12(19)10-11(13)2-4-15(14)16(18)6-7-17(18)20/h3,5,10,14-17,19-20H,2,4,6-9H2,1H3

>  <QSAR_READY_SMILES>
CC12CCC3C(CCC4=C3C=CC(O)=C4)C1CCC2O

>  <QSAR_READY_InChI>
InChI=1S/C18H24O2/c1-18-9-8-14-13-5-3-12(19)10-11(13)2-4-15(14)16(18)6-7-17(18)20/h3,5,10,14-17,19-20H,2,4,6-9H2,1H3

>  <DTXSID>
DTXSID0020573

>  <DTXCID>
DTXCID80573

>  <CASRN>
50-28-2

>  <EXPOCAST_MEDIAN_EXPOSURE_PREDICTION_MG/KG-BW/DAY>
-

>  <BIOCONCENTRATION_FACTOR_TEST_PRED>
160.694

>  <BOILING_POINT_DEGC_TEST_PRED>
378.806

>  <48HR_DAPHNIA_LC50_MOL/L_TEST_PRED>
1.16E-05

>  <DENSITY_G/CM^3_TEST_PRED>
1.158

>  <DEVTOX_TEST_PRED>
0.889

>  <96HR_FATHEAD_MINNOW_MOL/L_TEST_PRED>
3.44E-06

>  <FLASH_POINT_DEGC_TEST_PRED>
201.082

>  <MELTING_POINT_DEGC_TEST_PRED>
179.618

>  <AMES_MUTAGENICITY_TEST_PRED>
0.33

>  <ORAL_RAT_LD50_MOL/KG_TEST_PRED>
0.00579429

>  <SURFACE_TENSION_DYN/CM_TEST_PRED>
44.443

>  <THERMAL_CONDUCTIVITY_MW/(M*K)_TEST_PRED>
137.714

>  <TETRAHYMENA_PYRIFORMIS_IGC50_MOL/L_TEST_PRED>
1.02E-05

>  <VISCOSITY_CP_CP_TEST_PRED>
-

>  <VAPOR_PRESSURE_MMHG_TEST_PRED>
2.03E-08

>  <WATER_SOLUBILITY_MOL/L_TEST_PRED>
4.70E-05

>  <ATMOSPHERIC_HYDROXYLATION_RATE_(AOH)_CM3/MOLECULE*SEC_OPERA_PRED>
1.66E-11

>  <BIOCONCENTRATION_FACTOR_OPERA_PRED>
40.8171

>  <BIODEGRADATION_HALF_LIFE_DAYS_DAYS_OPERA_PRED>
97.1681

>  <BOILING_POINT_DEGC_OPERA_PRED>
372.628

>  <HENRYS_LAW_ATM-M3/MOLE_OPERA_PRED>
3.75E-06

>  <OPERA_KM_DAYS_OPERA_PRED>
1.48967

>  <OCTANOL_AIR_PARTITION_COEFF_LOGKOA_OPERA_PRED>
9.15263

>  <SOIL_ADSORPTION_COEFFICIENT_KOC_L/KG_OPERA_PRED>
348684

>  <OCTANOL_WATER_PARTITION_LOGP_OPERA_PRED>
3.90868

>  <MELTING_POINT_DEGC_OPERA_PRED>
199.93

>  <VAPOR_PRESSURE_MMHG_OPERA_PRED>
3.42E-10

>  <WATER_SOLUBILITY_MOL/L_OPERA_PRED>
1.34E-05

>  <Shape Index>
0.55

>  <Molecular Flexibility>
0.15604

>  <Molecular Complexity>
0.87589

>  <Electronegative Atoms>
2

>  <Stereo Centers>
5

>  <Rotatable Bonds>
0

>  <Rings Closures>
4

>  <Aromatic Rings>
1

>  <Aromatic Atoms>
6

>  <Amides>
0

>  <Amines>
0

>  <Aromatic Nitrogens>
0

>  <Shape Index 2>
0.55

>  <Molecular Flexibility 2>
0.15604

>  <Molecular Complexity 2>
0.87589

>  <Non-C/H Atoms>
2

>  <Electronegative Atoms 2>
2

>  <Stereo Centers 2>
5

>  <Rotatable Bonds 2>
0

>  <Rings Closures 2>
4

>  <Aromatic Rings 2>
1

>  <Aromatic Atoms 2>
6

>  <sp3-Atoms>
14

>  <Amides 2>
0

>  <Amines 2>
0

>  <Aromatic Nitrogens 2>
0

>  <Basic Nitrogens>
0

$$$$
Progesterone
Actelion Java MolfileCreator 2.0

  0  0  0  0  0  0              0 V3000
M  V30 BEGIN CTAB
M  V30 COUNTS 23 26 0 0 0
M  V30 BEGIN ATOM
M  V30 1 O 0.0 0.0 0.0 0
M  V30 2 C -1.4709 -0.2941 0.0 0
M  V30 3 C -1.9416 -1.7062 0.0 0
M  V30 4 C -2.4829 0.8237 0.0 0
M  V30 5 C -3.4125 -2.0004 0.0 0
M  V30 6 C -3.9538 0.5295 0.0 0
M  V30 7 C -4.4245 -0.8825 0.0 0
M  V30 8 C -3.8832 -3.4125 0.0 0
M  V30 9 C -5.8954 -1.1767 0.0 0 CFG=2
M  V30 10 C -5.4365 0.2353 0.0 0
M  V30 11 C -5.3541 -3.7067 0.0 0
M  V30 12 C -6.3661 -2.5888 0.0 0 CFG=1
M  V30 13 C -6.9074 -0.0588 0.0 0
M  V30 14 C -7.837 -2.883 0.0 0 CFG=1
M  V30 15 C -8.3783 -0.353 0.0 0
M  V30 16 C -8.849 -1.7651 0.0 0 CFG=2
M  V30 17 C -8.5901 -4.1656 0.0 0
M  V30 18 C -10.2258 -2.3652 0.0 0 CFG=2
M  V30 19 C -9.9669 -0.7531 0.0 0
M  V30 20 C -10.061 -3.8479 0.0 0
M  V30 21 C -11.532 -1.6121 0.0 0
M  V30 22 O -11.5437 -0.1059 0.0 0
M  V30 23 C -12.8381 -2.3534 0.0 0
M  V30 END ATOM
M  V30 BEGIN BOND
M  V30 1 2 1 2
M  V30 2 1 2 3
M  V30 3 1 2 4
M  V30 4 2 3 5
M  V30 5 1 4 6
M  V30 6 1 5 7
M  V30 7 1 5 8
M  V30 8 1 7 9
M  V30 9 1 7 10
M  V30 10 1 8 11
M  V30 11 1 9 12
M  V30 12 1 9 13 CFG=3
M  V30 13 1 12 14
M  V30 14 1 13 15
M  V30 15 1 14 16
M  V30 16 1 14 17 CFG=3
M  V30 17 1 16 18
M  V30 18 1 16 19 CFG=3
M  V30 19 1 17 20
M  V30 20 1 18 21 CFG=3
M  V30 21 2 21 22
M  V30 22 1 21 23
M  V30 23 1 6 7
M  V30 24 1 12 11 CFG=1
M  V30 25 1 15 16
M  V30 26 1 18 20
M  V30 END BOND
M  V30 BEGIN COLLECTION
M  V30 MDLV30/STEABS ATOMS=(5 9 12 14 16 18)
M  V30 END COLLECTION
M  V30 END CTAB
M  END
>  <Molecule Name>
Progesterone

>  <Order (spectra)>
368

>  <NAME>
Progesterone

>  <Molecular Formula>
C21H30O2

>  <Monoisotopic Mass>
314.22458

>  <SMILES>
[H][C@@]12CC[C@H](C(C)=O)[C@@]1(C)CC[C@@]1([H])[C@@]2([H])CCC2=CC(=O)CC[C@]12C

>  <InChI>
InChI=1S/C21H30O2/c1-13(22)17-6-7-18-16-5-4-14-12-15(23)8-10-20(14,2)19(16)9-11-21(17,18)3/h12,16-19H,4-11H2,1-3H3/t16-,17+,18+,19+,20?,21-/m1/s1

>  <InChIKey>
RJKFOVLPORLFTN-LEKSSAKUSA-N

>  <Kingdom>
Organic compounds

>  <Superclass>
Lipids and lipid-like molecules

>  <Class>
Steroids and steroid derivatives

>  <Subclass>
Pregnane steroids

>  <Parent Level 1>
Gluco/mineralocorticoids, progestogins and derivatives

>  <Parent Level 2>


>  <Parent Level 3>


>  <cLogP>
4.019

>  <cLogS>
-4.542

>  <Druglikeness>
0.77149

>  <NP-class probability>
1

>  <SmilesFragFp 3>


>  <MS_READY_SMILES>
CC(=O)C1CCC2C3CCC4=CC(=O)CCC4(C)C3CCC12C

>  <MS_READY_InChI>
InChI=1S/C21H30O2/c1-13(22)17-6-7-18-16-5-4-14-12-15(23)8-10-20(14,2)19(16)9-11-21(17,18)3/h12,16-19H,4-11H2,1-3H3

>  <QSAR_READY_SMILES>
CC(=O)C1CCC2C3CCC4=CC(=O)CCC4(C)C3CCC12C

>  <QSAR_READY_InChI>
InChI=1S/C21H30O2/c1-13(22)17-6-7-18-16-5-4-14-12-15(23)8-10-20(14,2)19(16)9-11-21(17,18)3/h12,16-19H,4-11H2,1-3H3

>  <DTXSID>
DTXSID3022370

>  <DTXCID>
DTXCID902370

>  <CASRN>
57-83-0

>  <EXPOCAST_MEDIAN_EXPOSURE_PREDICTION_MG/KG-BW/DAY>
-

>  <BIOCONCENTRATION_FACTOR_TEST_PRED>
100.693

>  <BOILING_POINT_DEGC_TEST_PRED>
365.363

>  <48HR_DAPHNIA_LC50_MOL/L_TEST_PRED>
2.15E-05

>  <DENSITY_G/CM^3_TEST_PRED>
1.078

>  <DEVTOX_TEST_PRED>
0.941

>  <96HR_FATHEAD_MINNOW_MOL/L_TEST_PRED>
5.50E-06

>  <FLASH_POINT_DEGC_TEST_PRED>
195.178

>  <MELTING_POINT_DEGC_TEST_PRED>
152.508

>  <AMES_MUTAGENICITY_TEST_PRED>
-

>  <ORAL_RAT_LD50_MOL/KG_TEST_PRED>
0.00660693

>  <SURFACE_TENSION_DYN/CM_TEST_PRED>
43.316

>  <THERMAL_CONDUCTIVITY_MW/(M*K)_TEST_PRED>
-

>  <TETRAHYMENA_PYRIFORMIS_IGC50_MOL/L_TEST_PRED>
-

>  <VISCOSITY_CP_CP_TEST_PRED>
-

>  <VAPOR_PRESSURE_MMHG_TEST_PRED>
3.35E-07

>  <WATER_SOLUBILITY_MOL/L_TEST_PRED>
2.50E-05

>  <ATMOSPHERIC_HYDROXYLATION_RATE_(AOH)_CM3/MOLECULE*SEC_OPERA_PRED>
1.03E-10

>  <BIOCONCENTRATION_FACTOR_OPERA_PRED>
51.5128

>  <BIODEGRADATION_HALF_LIFE_DAYS_DAYS_OPERA_PRED>
97.4949

>  <BOILING_POINT_DEGC_OPERA_PRED>
326.139

>  <HENRYS_LAW_ATM-M3/MOLE_OPERA_PRED>
1.30E-06

>  <OPERA_KM_DAYS_OPERA_PRED>
54.4184

>  <OCTANOL_AIR_PARTITION_COEFF_LOGKOA_OPERA_PRED>
9.87339

>  <SOIL_ADSORPTION_COEFFICIENT_KOC_L/KG_OPERA_PRED>
562836

>  <OCTANOL_WATER_PARTITION_LOGP_OPERA_PRED>
3.87106

>  <MELTING_POINT_DEGC_OPERA_PRED>
121.401

>  <VAPOR_PRESSURE_MMHG_OPERA_PRED>
7.04E-08

>  <WATER_SOLUBILITY_MOL/L_OPERA_PRED>
3.42E-05

>  <Shape Index>
0.52174

>  <Molecular Flexibility>
0.20694

>  <Molecular Complexity>
0.91289

>  <Electronegative Atoms>
2

>  <Stereo Centers>
6

>  <Rotatable Bonds>
1

>  <Rings Closures>
4

>  <Aromatic Rings>
0

>  <Aromatic Atoms>
0

>  <Amides>
0

>  <Amines>
0

>  <Aromatic Nitrogens>
0

>  <Shape Index 2>
0.52174

>  <Molecular Flexibility 2>
0.20694

>  <Molecular Complexity 2>
0.91289

>  <Non-C/H Atoms>
2

>  <Electronegative Atoms 2>
2

>  <Stereo Centers 2>
6

>  <Rotatable Bonds 2>
1

>  <Rings Closures 2>
4

>  <Aromatic Rings 2>
0

>  <Aromatic Atoms 2>
0

>  <sp3-Atoms>
17

>  <Amides 2>
0

>  <Amines 2>
0

>  <Aromatic Nitrogens 2>
0

>  <Basic Nitrogens>
0

$$$$
Testosterone
Actelion Java MolfileCreator 2.0

  0  0  0  0  0  0              0 V3000
M  V30 BEGIN CTAB
M  V30 COUNTS 21 24 0 0 0
M  V30 BEGIN ATOM
M  V30 1 O 0.0 0.0 0.0 0
M  V30 2 C -0.165 -1.4856 0.0 0
M  V30 3 C 1.0376 -2.3582 0.0 0
M  V30 4 C -1.5564 -2.087 0.0 0
M  V30 5 C 0.8725 -3.8438 0.0 0
M  V30 6 C -1.7214 -3.5726 0.0 0
M  V30 7 C -0.5188 -4.4452 0.0 0 CFG=2
M  V30 8 C 2.0752 -4.7164 0.0 0
M  V30 9 C -0.6838 -5.9309 0.0 0 CFG=2
M  V30 10 C -1.9101 -5.0465 0.0 0
M  V30 11 C 1.9101 -6.2021 0.0 0
M  V30 12 C 0.5188 -6.8034 0.0 0 CFG=1
M  V30 13 C -2.0752 -6.5322 0.0 0
M  V30 14 C 0.3537 -8.2891 0.0 0 CFG=1
M  V30 15 C -2.2403 -8.0179 0.0 0
M  V30 16 C -1.0376 -8.8904 0.0 0 CFG=2
M  V30 17 C 1.3441 -9.3974 0.0 0
M  V30 18 C -0.8961 -10.3761 0.0 0 CFG=2
M  V30 19 C -2.3582 -9.6333 0.0 0
M  V30 20 C 0.5777 -10.6945 0.0 0
M  V30 21 O -2.028 -11.3666 0.0 0
M  V30 END ATOM
M  V30 BEGIN BOND
M  V30 1 2 1 2
M  V30 2 1 2 3
M  V30 3 1 2 4
M  V30 4 2 3 5
M  V30 5 1 4 6
M  V30 6 1 5 7
M  V30 7 1 5 8
M  V30 8 1 7 9
M  V30 9 1 7 10 CFG=3
M  V30 10 1 8 11
M  V30 11 1 9 12
M  V30 12 1 9 13 CFG=3
M  V30 13 1 12 14
M  V30 14 1 13 15
M  V30 15 1 14 16
M  V30 16 1 14 17 CFG=3
M  V30 17 1 16 18
M  V30 18 1 16 19 CFG=3
M  V30 19 1 17 20
M  V30 20 1 18 21 CFG=3
M  V30 21 1 6 7
M  V30 22 1 12 11 CFG=1
M  V30 23 1 15 16
M  V30 24 1 18 20
M  V30 END BOND
M  V30 BEGIN COLLECTION
M  V30 MDLV30/STEABS ATOMS=(6 7 9 12 14 16 18)
M  V30 END COLLECTION
M  V30 END CTAB
M  END
>  <Molecule Name>
Testosterone

>  <Order (spectra)>
369

>  <NAME>
Testosterone

>  <Molecular Formula>
C19H28O2

>  <Monoisotopic Mass>
288.20893

>  <SMILES>
C[C@]12CC[C@H]3[C@@H](CCC4=CC(=O)CC[C@]34C)[C@@H]1CC[C@@H]2O

>  <InChI>
InChI=1S/C19H28O2/c1-18-9-7-13(20)11-12(18)3-4-14-15-5-6-17(21)19(15,2)10-8-16(14)18/h11,14-17,21H,3-10H2,1-2H3/t14-,15+,16+,17-,18+,19+/m1/s1

>  <InChIKey>
MUMGGOZAMZWBJJ-DYKIIFRCSA-N

>  <Kingdom>
Organic compounds

>  <Superclass>
Lipids and lipid-like molecules

>  <Class>
Steroids and steroid derivatives

>  <Subclass>
Androstane steroids

>  <Parent Level 1>
Androgens and derivatives

>  <Parent Level 2>


>  <Parent Level 3>


>  <cLogP>
3.4962

>  <cLogS>
-4.061

>  <Druglikeness>
1.56

>  <NP-class probability>
0.76

>  <SmilesFragFp 3>


>  <MS_READY_SMILES>
CC12CCC3C(CCC4=CC(=O)CCC34C)C1CCC2O

>  <MS_READY_InChI>
InChI=1S/C19H28O2/c1-18-9-7-13(20)11-12(18)3-4-14-15-5-6-17(21)19(15,2)10-8-16(14)18/h11,14-17,21H,3-10H2,1-2H3

>  <QSAR_READY_SMILES>
CC12CCC3C(CCC4=CC(=O)CCC34C)C1CCC2O

>  <QSAR_READY_InChI>
InChI=1S/C19H28O2/c1-18-9-7-13(20)11-12(18)3-4-14-15-5-6-17(21)19(15,2)10-8-16(14)18/h11,14-17,21H,3-10H2,1-2H3

>  <DTXSID>
DTXSID8022371

>  <DTXCID>
DTXCID302371

>  <CASRN>
58-22-0

>  <EXPOCAST_MEDIAN_EXPOSURE_PREDICTION_MG/KG-BW/DAY>
-

>  <BIOCONCENTRATION_FACTOR_TEST_PRED>
80.5378

>  <BOILING_POINT_DEGC_TEST_PRED>
357.585

>  <48HR_DAPHNIA_LC50_MOL/L_TEST_PRED>
2.07E-05

>  <DENSITY_G/CM^3_TEST_PRED>
1.111

>  <DEVTOX_TEST_PRED>
1.04

>  <96HR_FATHEAD_MINNOW_MOL/L_TEST_PRED>
4.29E-06

>  <FLASH_POINT_DEGC_TEST_PRED>
192.036

>  <MELTING_POINT_DEGC_TEST_PRED>
149.177

>  <AMES_MUTAGENICITY_TEST_PRED>
-0.018

>  <ORAL_RAT_LD50_MOL/KG_TEST_PRED>
0.0135207

>  <SURFACE_TENSION_DYN/CM_TEST_PRED>
43.766

>  <THERMAL_CONDUCTIVITY_MW/(M*K)_TEST_PRED>
-

>  <TETRAHYMENA_PYRIFORMIS_IGC50_MOL/L_TEST_PRED>
-

>  <VISCOSITY_CP_CP_TEST_PRED>
-

>  <VAPOR_PRESSURE_MMHG_TEST_PRED>
2.45E-07

>  <WATER_SOLUBILITY_MOL/L_TEST_PRED>
0.000130317

>  <ATMOSPHERIC_HYDROXYLATION_RATE_(AOH)_CM3/MOLECULE*SEC_OPERA_PRED>
3.99E-11

>  <BIOCONCENTRATION_FACTOR_OPERA_PRED>
55.074

>  <BIODEGRADATION_HALF_LIFE_DAYS_DAYS_OPERA_PRED>
97.3688

>  <BOILING_POINT_DEGC_OPERA_PRED>
295.438

>  <HENRYS_LAW_ATM-M3/MOLE_OPERA_PRED>
7.05E-08

>  <OPERA_KM_DAYS_OPERA_PRED>
3.30417

>  <OCTANOL_AIR_PARTITION_COEFF_LOGKOA_OPERA_PRED>
10.9935

>  <SOIL_ADSORPTION_COEFFICIENT_KOC_L/KG_OPERA_PRED>
142142

>  <OCTANOL_WATER_PARTITION_LOGP_OPERA_PRED>
3.31807

>  <MELTING_POINT_DEGC_OPERA_PRED>
154.925

>  <VAPOR_PRESSURE_MMHG_OPERA_PRED>
1.61E-07

>  <WATER_SOLUBILITY_MOL/L_OPERA_PRED>
9.12E-05

>  <Shape Index>
0.52381

>  <Molecular Flexibility>
0.16218

>  <Molecular Complexity>
0.90577

>  <Electronegative Atoms>
2

>  <Stereo Centers>
6

>  <Rotatable Bonds>
0

>  <Rings Closures>
4

>  <Aromatic Rings>
0

>  <Aromatic Atoms>
0

>  <Amides>
0

>  <Amines>
0

>  <Aromatic Nitrogens>
0

>  <Shape Index 2>
0.52381

>  <Molecular Flexibility 2>
0.16218

>  <Molecular Complexity 2>
0.90577

>  <Non-C/H Atoms>
2

>  <Electronegative Atoms 2>
2

>  <Stereo Centers 2>
6

>  <Rotatable Bonds 2>
0

>  <Rings Closures 2>
4

>  <Aromatic Rings 2>
0

>  <Aromatic Atoms 2>
0

>  <sp3-Atoms>
17

>  <Amides 2>
0

>  <Amines 2>
0

>  <Aromatic Nitrogens 2>
0

>  <Basic Nitrogens>
0

$$$$
Epoxiconazole
Actelion Java MolfileCreator 2.0

  0  0  0  0  0  0              0 V3000
M  V30 BEGIN CTAB
M  V30 COUNTS 23 26 0 0 0
M  V30 BEGIN ATOM
M  V30 1 Cl 0.0 0.0 0.0 0
M  V30 2 C -0.0118 1.5114 0.0 0
M  V30 3 C 1.2752 2.2671 0.0 0
M  V30 4 C -1.3225 2.2671 0.0 0
M  V30 5 C 1.2634 3.7786 0.0 0
M  V30 6 C 2.5623 1.535 0.0 0
M  V30 7 C -1.3343 3.7786 0.0 0
M  V30 8 C -0.0472 4.5461 0.0 0
M  V30 9 O 3.2944 0.2479 0.0 0
M  V30 10 C 4.0502 1.5468 0.0 0
M  V30 11 C 5.1011 0.4959 0.0 0
M  V30 12 C 5.3373 2.3025 0.0 0
M  V30 13 C 4.6996 -0.9446 0.0 0
M  V30 14 C 6.5417 0.8974 0.0 0
M  V30 15 N 5.3254 3.814 0.0 0
M  V30 16 C 5.7505 -1.9955 0.0 0
M  V30 17 C 7.5926 -0.1535 0.0 0
M  V30 18 N 4.0974 4.7114 0.0 0
M  V30 19 C 6.5299 4.7114 0.0 0
M  V30 20 C 7.1911 -1.5941 0.0 0
M  V30 21 C 4.5461 6.152 0.0 0
M  V30 22 N 6.0576 6.152 0.0 0
M  V30 23 F 8.2421 -2.645 0.0 0
M  V30 END ATOM
M  V30 BEGIN BOND
M  V30 1 1 1 2
M  V30 2 2 2 3
M  V30 3 1 2 4
M  V30 4 1 3 5
M  V30 5 1 3 6
M  V30 6 2 4 7
M  V30 7 2 5 8
M  V30 8 1 6 9
M  V30 9 1 6 10
M  V30 10 1 10 11
M  V30 11 1 10 12
M  V30 12 2 11 13
M  V30 13 1 11 14
M  V30 14 1 12 15
M  V30 15 1 13 16
M  V30 16 2 14 17
M  V30 17 1 15 18
M  V30 18 1 15 19
M  V30 19 2 16 20
M  V30 20 2 18 21
M  V30 21 2 19 22
M  V30 22 1 20 23
M  V30 23 1 7 8
M  V30 24 1 9 10
M  V30 25 1 17 20
M  V30 26 1 21 22
M  V30 END BOND
M  V30 END CTAB
M  END
>  <Molecule Name>
Epoxiconazole

>  <Order (spectra)>
340

>  <NAME>
Epoxiconazole

>  <Molecular Formula>
C17H13N3OClF

>  <Monoisotopic Mass>
329.073117

>  <SMILES>
FC1=CC=C(C=C1)C1(CN2C=NC=N2)OC1C1=C(Cl)C=CC=C1

>  <InChI>
InChI=1S/C17H13ClFN3O/c18-15-4-2-1-3-14(15)16-17(23-16,9-22-11-20-10-21-22)12-5-7-13(19)8-6-12/h1-8,10-11,16H,9H2

>  <InChIKey>
ZMYFCFLJBGAQRS-UHFFFAOYSA-N

>  <Kingdom>
Organic compounds

>  <Superclass>
Phenylpropanoids and polyketides

>  <Class>
Stilbenes

>  <Subclass>


>  <Parent Level 1>
Stilbenes

>  <Parent Level 2>


>  <Parent Level 3>


>  <cLogP>
2.8708

>  <cLogS>
-3.884

>  <Druglikeness>
2.7264

>  <NP-class probability>
0.03

>  <SmilesFragFp 3>


>  <MS_READY_SMILES>
FC1=CC=C(C=C1)C1(CN2C=NC=N2)OC1C1=C(Cl)C=CC=C1

>  <MS_READY_InChI>
InChI=1S/C17H13ClFN3O/c18-15-4-2-1-3-14(15)16-17(23-16,9-22-11-20-10-21-22)12-5-7-13(19)8-6-12/h1-8,10-11,16H,9H2

>  <QSAR_READY_SMILES>
FC1=CC=C(C=C1)C1(CN2C=NC=N2)OC1C1=C(Cl)C=CC=C1

>  <QSAR_READY_InChI>
InChI=1S/C17H13ClFN3O/c18-15-4-2-1-3-14(15)16-17(23-16,9-22-11-20-10-21-22)12-5-7-13(19)8-6-12/h1-8,10-11,16H,9H2

>  <DTXSID>
DTXSID1040372

>  <DTXCID>
DTXCID9020372

>  <CASRN>
133855-98-8

>  <EXPOCAST_MEDIAN_EXPOSURE_PREDICTION_MG/KG-BW/DAY>
2.04E-07

>  <BIOCONCENTRATION_FACTOR_TEST_PRED>
154.17

>  <BOILING_POINT_DEGC_TEST_PRED>
398.924

>  <48HR_DAPHNIA_LC50_MOL/L_TEST_PRED>
7.82E-06

>  <DENSITY_G/CM^3_TEST_PRED>
1.441

>  <DEVTOX_TEST_PRED>
0.475

>  <96HR_FATHEAD_MINNOW_MOL/L_TEST_PRED>
2.06E-07

>  <FLASH_POINT_DEGC_TEST_PRED>
260.536

>  <MELTING_POINT_DEGC_TEST_PRED>
118.299

>  <AMES_MUTAGENICITY_TEST_PRED>
0.419

>  <ORAL_RAT_LD50_MOL/KG_TEST_PRED>
-

>  <SURFACE_TENSION_DYN/CM_TEST_PRED>
-

>  <THERMAL_CONDUCTIVITY_MW/(M*K)_TEST_PRED>
-

>  <TETRAHYMENA_PYRIFORMIS_IGC50_MOL/L_TEST_PRED>
-

>  <VISCOSITY_CP_CP_TEST_PRED>
-

>  <VAPOR_PRESSURE_MMHG_TEST_PRED>
2.01E-08

>  <WATER_SOLUBILITY_MOL/L_TEST_PRED>
5.12E-05

>  <ATMOSPHERIC_HYDROXYLATION_RATE_(AOH)_CM3/MOLECULE*SEC_OPERA_PRED>
1.62E-11

>  <BIOCONCENTRATION_FACTOR_OPERA_PRED>
81.1614

>  <BIODEGRADATION_HALF_LIFE_DAYS_DAYS_OPERA_PRED>
3.54679

>  <BOILING_POINT_DEGC_OPERA_PRED>
335.477

>  <HENRYS_LAW_ATM-M3/MOLE_OPERA_PRED>
3.13E-06

>  <OPERA_KM_DAYS_OPERA_PRED>
0.495612

>  <OCTANOL_AIR_PARTITION_COEFF_LOGKOA_OPERA_PRED>
10.2041

>  <SOIL_ADSORPTION_COEFFICIENT_KOC_L/KG_OPERA_PRED>
303.712

>  <OCTANOL_WATER_PARTITION_LOGP_OPERA_PRED>
3.44009

>  <MELTING_POINT_DEGC_OPERA_PRED>
115.082

>  <VAPOR_PRESSURE_MMHG_OPERA_PRED>
2.42E-07

>  <WATER_SOLUBILITY_MOL/L_OPERA_PRED>
1.42E-05

>  <Shape Index>
0.47826

>  <Molecular Flexibility>
0.42661

>  <Molecular Complexity>
0.86625

>  <Electronegative Atoms>
6

>  <Stereo Centers>
2

>  <Rotatable Bonds>
4

>  <Rings Closures>
4

>  <Aromatic Rings>
3

>  <Aromatic Atoms>
17

>  <Amides>
0

>  <Amines>
0

>  <Aromatic Nitrogens>
3

>  <Shape Index 2>
0.47826

>  <Molecular Flexibility 2>
0.42661

>  <Molecular Complexity 2>
0.86625

>  <Non-C/H Atoms>
6

>  <Electronegative Atoms 2>
6

>  <Stereo Centers 2>
2

>  <Rotatable Bonds 2>
4

>  <Rings Closures 2>
4

>  <Aromatic Rings 2>
3

>  <Aromatic Atoms 2>
17

>  <sp3-Atoms>
4

>  <Amides 2>
0

>  <Amines 2>
0

>  <Aromatic Nitrogens 2>
3

>  <Basic Nitrogens>
0

$$$$
Praziquantel
Actelion Java MolfileCreator 2.0

  0  0  0  0  0  0              0 V3000
M  V30 BEGIN CTAB
M  V30 COUNTS 23 26 0 0 0
M  V30 BEGIN ATOM
M  V30 1 O 0.0 0.0 0.0 0
M  V30 2 C -0.0118 1.5105 0.0 0
M  V30 3 N 1.2745 2.2658 0.0 0
M  V30 4 C -1.3217 2.2658 0.0 0
M  V30 5 C 1.2627 3.7764 0.0 0 CFG=2
M  V30 6 C 2.5608 1.5341 0.0 0
M  V30 7 N -1.3335 3.7764 0.0 0
M  V30 8 C 2.549 4.5317 0.0 0
M  V30 9 C -0.0472 4.5317 0.0 0
M  V30 10 C 3.8472 2.2894 0.0 0
M  V30 11 C -2.6435 4.5317 0.0 0
M  V30 12 C 3.8354 3.8 0.0 0
M  V30 13 C 2.5372 6.0422 0.0 0
M  V30 14 O -2.6553 6.0422 0.0 0
M  V30 15 C -3.9534 3.8 0.0 0
M  V30 16 C 5.1217 4.5553 0.0 0
M  V30 17 C 3.8236 6.7975 0.0 0
M  V30 18 C -5.2634 4.5553 0.0 0
M  V30 19 C -3.9652 2.313 0.0 0
M  V30 20 C 5.1099 6.0658 0.0 0
M  V30 21 C -6.5733 3.8236 0.0 0
M  V30 22 C -5.2752 1.5813 0.0 0
M  V30 23 C -6.5851 2.3366 0.0 0
M  V30 END ATOM
M  V30 BEGIN BOND
M  V30 1 2 1 2
M  V30 2 1 2 3
M  V30 3 1 2 4
M  V30 4 1 5 3 CFG=1
M  V30 5 1 3 6
M  V30 6 1 4 7
M  V30 7 1 5 8
M  V30 8 1 5 9
M  V30 9 1 6 10
M  V30 10 1 7 11
M  V30 11 2 8 12
M  V30 12 1 8 13
M  V30 13 2 11 14
M  V30 14 1 11 15
M  V30 15 1 12 16
M  V30 16 2 13 17
M  V30 17 1 15 18
M  V30 18 1 15 19
M  V30 19 2 16 20
M  V30 20 1 18 21
M  V30 21 1 19 22
M  V30 22 1 21 23
M  V30 23 1 7 9
M  V30 24 1 10 12
M  V30 25 1 17 20
M  V30 26 1 22 23
M  V30 END BOND
M  V30 BEGIN COLLECTION
M  V30 MDLV30/STERAC1 ATOMS=(1 5)
M  V30 END COLLECTION
M  V30 END CTAB
M  END
>  <Molecule Name>
Praziquantel

>  <Order (spectra)>
235

>  <NAME>
Praziquantel

>  <Molecular Formula>
C19H24N2O2

>  <Monoisotopic Mass>
312.183778

>  <SMILES>
O=C(C1CCCCC1)N1CC2N(CCC3=C2C=CC=C3)C(=O)C1

>  <InChI>
InChI=1S/C19H24N2O2/c22-18-13-20(19(23)15-7-2-1-3-8-15)12-17-16-9-5-4-6-14(16)10-11-21(17)18/h4-6,9,15,17H,1-3,7-8,10-13H2/t17-/m0/s1

>  <InChIKey>
FSVJFNAIGNNGKK-UHFFFAOYSA-N

>  <Kingdom>
Organic compounds

>  <Superclass>
Organoheterocyclic compounds

>  <Class>
Tetrahydroisoquinolines

>  <Subclass>


>  <Parent Level 1>
Tetrahydroisoquinolines

>  <Parent Level 2>


>  <Parent Level 3>


>  <cLogP>
2.5396

>  <cLogS>
-2.409

>  <Druglikeness>
-0.071538

>  <NP-class probability>
0.13

>  <SmilesFragFp 3>


>  <MS_READY_SMILES>
O=C(C1CCCCC1)N1CC2N(CCC3=C2C=CC=C3)C(=O)C1

>  <MS_READY_InChI>
InChI=1S/C19H24N2O2/c22-18-13-20(19(23)15-7-2-1-3-8-15)12-17-16-9-5-4-6-14(16)10-11-21(17)18/h4-6,9,15,17H,1-3,7-8,10-13H2/t17-/m0/s1

>  <QSAR_READY_SMILES>
O=C(C1CCCCC1)N1CC2N(CCC3=C2C=CC=C3)C(=O)C1

>  <QSAR_READY_InChI>
InChI=1S/C19H24N2O2/c22-18-13-20(19(23)15-7-2-1-3-8-15)12-17-16-9-5-4-6-14(16)10-11-21(17)18/h4-6,9,15,17H,1-3,7-8,10-13H2/t17-/m0/s1

>  <DTXSID>
DTXSID9021182

>  <DTXCID>
DTXCID501182

>  <CASRN>
55268-74-1

>  <EXPOCAST_MEDIAN_EXPOSURE_PREDICTION_MG/KG-BW/DAY>
9.86E-05

>  <BIOCONCENTRATION_FACTOR_TEST_PRED>
25.527

>  <BOILING_POINT_DEGC_TEST_PRED>
368.757

>  <48HR_DAPHNIA_LC50_MOL/L_TEST_PRED>
6.97E-05

>  <DENSITY_G/CM^3_TEST_PRED>
1.167

>  <DEVTOX_TEST_PRED>
0.93

>  <96HR_FATHEAD_MINNOW_MOL/L_TEST_PRED>
5.53E-06

>  <FLASH_POINT_DEGC_TEST_PRED>
246.113

>  <MELTING_POINT_DEGC_TEST_PRED>
154.884

>  <AMES_MUTAGENICITY_TEST_PRED>
0.505

>  <ORAL_RAT_LD50_MOL/KG_TEST_PRED>
0.00171396

>  <SURFACE_TENSION_DYN/CM_TEST_PRED>
-

>  <THERMAL_CONDUCTIVITY_MW/(M*K)_TEST_PRED>
-

>  <TETRAHYMENA_PYRIFORMIS_IGC50_MOL/L_TEST_PRED>
8.22E-05

>  <VISCOSITY_CP_CP_TEST_PRED>
-

>  <VAPOR_PRESSURE_MMHG_TEST_PRED>
7.01E-09

>  <WATER_SOLUBILITY_MOL/L_TEST_PRED>
0.00219786

>  <ATMOSPHERIC_HYDROXYLATION_RATE_(AOH)_CM3/MOLECULE*SEC_OPERA_PRED>
3.30E-11

>  <BIOCONCENTRATION_FACTOR_OPERA_PRED>
7.56114

>  <BIODEGRADATION_HALF_LIFE_DAYS_DAYS_OPERA_PRED>
7.649

>  <BOILING_POINT_DEGC_OPERA_PRED>
359.663

>  <HENRYS_LAW_ATM-M3/MOLE_OPERA_PRED>
7.08E-09

>  <OPERA_KM_DAYS_OPERA_PRED>
0.934891

>  <OCTANOL_AIR_PARTITION_COEFF_LOGKOA_OPERA_PRED>
11.5237

>  <SOIL_ADSORPTION_COEFFICIENT_KOC_L/KG_OPERA_PRED>
834.52

>  <OCTANOL_WATER_PARTITION_LOGP_OPERA_PRED>
1.74185

>  <MELTING_POINT_DEGC_OPERA_PRED>
136.001

>  <VAPOR_PRESSURE_MMHG_OPERA_PRED>
9.99E-09

>  <WATER_SOLUBILITY_MOL/L_OPERA_PRED>
0.00127889

>  <Shape Index>
0.52174

>  <Molecular Flexibility>
0.28817

>  <Molecular Complexity>
0.85157

>  <Electronegative Atoms>
4

>  <Stereo Centers>
1

>  <Rotatable Bonds>
1

>  <Rings Closures>
4

>  <Aromatic Rings>
1

>  <Aromatic Atoms>
6

>  <Amides>
2

>  <Amines>
0

>  <Aromatic Nitrogens>
0

>  <Shape Index 2>
0.52174

>  <Molecular Flexibility 2>
0.28817

>  <Molecular Complexity 2>
0.85157

>  <Non-C/H Atoms>
4

>  <Electronegative Atoms 2>
4

>  <Stereo Centers 2>
1

>  <Rotatable Bonds 2>
1

>  <Rings Closures 2>
4

>  <Aromatic Rings 2>
1

>  <Aromatic Atoms 2>
6

>  <sp3-Atoms>
11

>  <Amides 2>
2

>  <Amines 2>
0

>  <Aromatic Nitrogens 2>
0

>  <Basic Nitrogens>
0

$$$$
Tonalide
Actelion Java MolfileCreator 2.0

  0  0  0  0  0  0              0 V3000
M  V30 BEGIN CTAB
M  V30 COUNTS 19 20 0 0 0
M  V30 BEGIN ATOM
M  V30 1 O 0.0 0.0 0.0 0
M  V30 2 C -1.3061 0.7531 0.0 0
M  V30 3 C -1.3179 2.2593 0.0 0
M  V30 4 C -2.6123 0.0117 0.0 0
M  V30 5 C -0.0353 3.0124 0.0 0
M  V30 6 C -2.6241 3.0124 0.0 0
M  V30 7 C -0.047 4.5186 0.0 0
M  V30 8 C 1.2473 2.271 0.0 0
M  V30 9 C -2.6358 4.5186 0.0 0
M  V30 10 C -1.3532 5.2717 0.0 0
M  V30 11 C -3.942 5.2717 0.0 0
M  V30 12 C -1.365 6.7779 0.0 0
M  V30 13 C -3.9538 6.7779 0.0 0
M  V30 14 C -5.4482 5.2835 0.0 0
M  V30 15 C -4.6951 3.9891 0.0 0
M  V30 16 C -2.6711 7.531 0.0 0 CFG=2
M  V30 17 C 0.1176 6.7897 0.0 0
M  V30 18 C -0.6236 8.0841 0.0 0
M  V30 19 C -2.6829 9.0372 0.0 0
M  V30 END ATOM
M  V30 BEGIN BOND
M  V30 1 2 1 2
M  V30 2 1 2 3
M  V30 3 1 2 4
M  V30 4 2 3 5
M  V30 5 1 3 6
M  V30 6 1 5 7
M  V30 7 1 5 8
M  V30 8 2 6 9
M  V30 9 2 7 10
M  V30 10 1 9 11
M  V30 11 1 10 12
M  V30 12 1 11 13
M  V30 13 1 11 14
M  V30 14 1 11 15
M  V30 15 1 12 16
M  V30 16 1 12 17
M  V30 17 1 12 18
M  V30 18 1 16 19 CFG=3
M  V30 19 1 9 10
M  V30 20 1 13 16
M  V30 END BOND
M  V30 BEGIN COLLECTION
M  V30 MDLV30/STERAC1 ATOMS=(1 16)
M  V30 END COLLECTION
M  V30 END CTAB
M  END
>  <Molecule Name>
Tonalide

>  <Order (spectra)>
153

>  <NAME>
Tonalide

>  <Molecular Formula>
C18H26O

>  <Monoisotopic Mass>
258.198365

>  <SMILES>
CC1CC(C)(C)C2=C(C=C(C)C(=C2)C(C)=O)C1(C)C

>  <InChI>
InChI=1S/C18H26O/c1-11-8-16-15(9-14(11)13(3)19)17(4,5)10-12(2)18(16,6)7/h8-9,12H,10H2,1-7H3/t12-/m1/s1

>  <InChIKey>
DNRJTBAOUJJKDY-UHFFFAOYSA-N

>  <Kingdom>
Organic compounds

>  <Superclass>
Benzenoids

>  <Class>
Tetralins

>  <Subclass>


>  <Parent Level 1>
Tetralins

>  <Parent Level 2>


>  <Parent Level 3>


>  <cLogP>
4.2028

>  <cLogS>
-5.21

>  <Druglikeness>
-4.0311

>  <NP-class probability>
0.67

>  <SmilesFragFp 3>


>  <MS_READY_SMILES>
CC1CC(C)(C)C2=C(C=C(C)C(=C2)C(C)=O)C1(C)C

>  <MS_READY_InChI>
InChI=1S/C18H26O/c1-11-8-16-15(9-14(11)13(3)19)17(4,5)10-12(2)18(16,6)7/h8-9,12H,10H2,1-7H3/t12-/m1/s1

>  <QSAR_READY_SMILES>
CC1CC(C)(C)C2=C(C=C(C)C(=C2)C(C)=O)C1(C)C

>  <QSAR_READY_InChI>
InChI=1S/C18H26O/c1-11-8-16-15(9-14(11)13(3)19)17(4,5)10-12(2)18(16,6)7/h8-9,12H,10H2,1-7H3/t12-/m1/s1

>  <DTXSID>
DTXSID7041544

>  <DTXCID>
DTXCID5021544

>  <CASRN>
21145-77-7

>  <EXPOCAST_MEDIAN_EXPOSURE_PREDICTION_MG/KG-BW/DAY>
2.61E-07

>  <BIOCONCENTRATION_FACTOR_TEST_PRED>
629.506

>  <BOILING_POINT_DEGC_TEST_PRED>
323.052

>  <48HR_DAPHNIA_LC50_MOL/L_TEST_PRED>
5.36E-06

>  <DENSITY_G/CM^3_TEST_PRED>
0.929

>  <DEVTOX_TEST_PRED>
0.707

>  <96HR_FATHEAD_MINNOW_MOL/L_TEST_PRED>
2.75E-06

>  <FLASH_POINT_DEGC_TEST_PRED>
141.955

>  <MELTING_POINT_DEGC_TEST_PRED>
54.798

>  <AMES_MUTAGENICITY_TEST_PRED>
-0.035

>  <ORAL_RAT_LD50_MOL/KG_TEST_PRED>
0.00295801

>  <SURFACE_TENSION_DYN/CM_TEST_PRED>
-

>  <THERMAL_CONDUCTIVITY_MW/(M*K)_TEST_PRED>
109.248

>  <TETRAHYMENA_PYRIFORMIS_IGC50_MOL/L_TEST_PRED>
6.79E-06

>  <VISCOSITY_CP_CP_TEST_PRED>
-

>  <VAPOR_PRESSURE_MMHG_TEST_PRED>
4.31E-05

>  <WATER_SOLUBILITY_MOL/L_TEST_PRED>
4.94E-06

>  <ATMOSPHERIC_HYDROXYLATION_RATE_(AOH)_CM3/MOLECULE*SEC_OPERA_PRED>
1.37E-11

>  <BIOCONCENTRATION_FACTOR_OPERA_PRED>
2488.98

>  <BIODEGRADATION_HALF_LIFE_DAYS_DAYS_OPERA_PRED>
7.37811

>  <BOILING_POINT_DEGC_OPERA_PRED>
324.434

>  <HENRYS_LAW_ATM-M3/MOLE_OPERA_PRED>
4.81E-05

>  <OPERA_KM_DAYS_OPERA_PRED>
0.72872

>  <OCTANOL_AIR_PARTITION_COEFF_LOGKOA_OPERA_PRED>
7.92686

>  <SOIL_ADSORPTION_COEFFICIENT_KOC_L/KG_OPERA_PRED>
2926.36

>  <OCTANOL_WATER_PARTITION_LOGP_OPERA_PRED>
5.69897

>  <MELTING_POINT_DEGC_OPERA_PRED>
53.8617

>  <VAPOR_PRESSURE_MMHG_OPERA_PRED>
4.02E-05

>  <WATER_SOLUBILITY_MOL/L_OPERA_PRED>
4.84E-06

>  <Shape Index>
0.47368

>  <Molecular Flexibility>
0.22959

>  <Molecular Complexity>
0.82844

>  <Electronegative Atoms>
1

>  <Stereo Centers>
1

>  <Rotatable Bonds>
1

>  <Rings Closures>
2

>  <Aromatic Rings>
1

>  <Aromatic Atoms>
6

>  <Amides>
0

>  <Amines>
0

>  <Aromatic Nitrogens>
0

>  <Shape Index 2>
0.47368

>  <Molecular Flexibility 2>
0.22959

>  <Molecular Complexity 2>
0.82844

>  <Non-C/H Atoms>
1

>  <Electronegative Atoms 2>
1

>  <Stereo Centers 2>
1

>  <Rotatable Bonds 2>
1

>  <Rings Closures 2>
2

>  <Aromatic Rings 2>
1

>  <Aromatic Atoms 2>
6

>  <sp3-Atoms>
11

>  <Amides 2>
0

>  <Amines 2>
0

>  <Aromatic Nitrogens 2>
0

>  <Basic Nitrogens>
0

$$$$
Buprofezin
Actelion Java MolfileCreator 2.0

  0  0  0  0  0  0              0 V3000
M  V30 BEGIN CTAB
M  V30 COUNTS 21 22 0 0 0
M  V30 BEGIN ATOM
M  V30 1 S 0.0 0.0 0.0 0
M  V30 2 C -1.3169 -0.7355 0.0 0
M  V30 3 C 1.2932 -0.7355 0.0 0
M  V30 4 N -2.6338 0.0237 0.0 0
M  V30 5 N -1.3288 -2.2305 0.0 0
M  V30 6 N 1.2813 -2.2305 0.0 0
M  V30 7 C -3.9508 -0.7118 0.0 0
M  V30 8 C -0.0355 -2.9779 0.0 0
M  V30 9 C -2.6457 -2.9779 0.0 0
M  V30 10 C 2.5745 -2.9779 0.0 0
M  V30 11 C -3.1559 -1.922 0.0 0
M  V30 12 C -5.2677 -1.4474 0.0 0
M  V30 13 C -4.7101 0.605 0.0 0
M  V30 14 O -0.0474 -4.4728 0.0 0
M  V30 15 C -3.9626 -2.2067 0.0 0
M  V30 16 C -2.6576 -4.4728 0.0 0
M  V30 17 C 2.5627 -4.4728 0.0 0
M  V30 18 C 3.8677 -2.2067 0.0 0
M  V30 19 C 3.8559 -5.2084 0.0 0
M  V30 20 C 5.1609 -2.9542 0.0 0
M  V30 21 C 5.1491 -4.4491 0.0 0
M  V30 END ATOM
M  V30 BEGIN BOND
M  V30 1 1 1 2
M  V30 2 1 1 3
M  V30 3 2 2 4 CFG=2
M  V30 4 1 2 5
M  V30 5 1 3 6
M  V30 6 1 4 7
M  V30 7 1 5 8
M  V30 8 1 5 9
M  V30 9 1 6 10
M  V30 10 1 7 11
M  V30 11 1 7 12
M  V30 12 1 7 13
M  V30 13 2 8 14
M  V30 14 1 9 15
M  V30 15 1 9 16
M  V30 16 2 10 17
M  V30 17 1 10 18
M  V30 18 1 17 19
M  V30 19 2 18 20
M  V30 20 2 19 21
M  V30 21 1 6 8
M  V30 22 1 20 21
M  V30 END BOND
M  V30 END CTAB
M  END
>  <Molecule Name>
Buprofezin

>  <Order (spectra)>
314

>  <NAME>
Buprofezin

>  <Molecular Formula>
C16H23N3OS

>  <Monoisotopic Mass>
305.156182

>  <SMILES>
CC(C)N1C(SCN(C1=O)C1=CC=CC=C1)=NC(C)(C)C

>  <InChI>
InChI=1S/C16H23N3OS/c1-12(2)19-14(17-16(3,4)5)21-11-18(15(19)20)13-9-7-6-8-10-13/h6-10,12H,11H2,1-5H3

>  <InChIKey>
PRLVTUNWOQKEAI-UHFFFAOYSA-N

>  <Kingdom>
Organic compounds

>  <Superclass>
Organoheterocyclic compounds

>  <Class>
Thiadiazinanes

>  <Subclass>


>  <Parent Level 1>
Thiadiazinanes

>  <Parent Level 2>


>  <Parent Level 3>


>  <cLogP>
4.0091

>  <cLogS>
-5.008

>  <Druglikeness>
-1.8429

>  <NP-class probability>
0.07

>  <SmilesFragFp 3>


>  <MS_READY_SMILES>
CC(C)N1C(SCN(C1=O)C1=CC=CC=C1)=NC(C)(C)C

>  <MS_READY_InChI>
InChI=1S/C16H23N3OS/c1-12(2)19-14(17-16(3,4)5)21-11-18(15(19)20)13-9-7-6-8-10-13/h6-10,12H,11H2,1-5H3

>  <QSAR_READY_SMILES>
CC(C)N1C(SCN(C1=O)C1=CC=CC=C1)=NC(C)(C)C

>  <QSAR_READY_InChI>
InChI=1S/C16H23N3OS/c1-12(2)19-14(17-16(3,4)5)21-11-18(15(19)20)13-9-7-6-8-10-13/h6-10,12H,11H2,1-5H3

>  <DTXSID>
DTXSID8034401

>  <DTXCID>
DTXCID6014401

>  <CASRN>
69327-76-0

>  <EXPOCAST_MEDIAN_EXPOSURE_PREDICTION_MG/KG-BW/DAY>
6.68E-07

>  <BIOCONCENTRATION_FACTOR_TEST_PRED>
65.3131

>  <BOILING_POINT_DEGC_TEST_PRED>
-

>  <48HR_DAPHNIA_LC50_MOL/L_TEST_PRED>
3.85E-05

>  <DENSITY_G/CM^3_TEST_PRED>
1.177

>  <DEVTOX_TEST_PRED>
0.248

>  <96HR_FATHEAD_MINNOW_MOL/L_TEST_PRED>
-

>  <FLASH_POINT_DEGC_TEST_PRED>
212.953

>  <MELTING_POINT_DEGC_TEST_PRED>
95.449

>  <AMES_MUTAGENICITY_TEST_PRED>
0.774

>  <ORAL_RAT_LD50_MOL/KG_TEST_PRED>
0.00420727

>  <SURFACE_TENSION_DYN/CM_TEST_PRED>
-

>  <THERMAL_CONDUCTIVITY_MW/(M*K)_TEST_PRED>
-

>  <TETRAHYMENA_PYRIFORMIS_IGC50_MOL/L_TEST_PRED>
-

>  <VISCOSITY_CP_CP_TEST_PRED>
-

>  <VAPOR_PRESSURE_MMHG_TEST_PRED>
3.80E-07

>  <WATER_SOLUBILITY_MOL/L_TEST_PRED>
5.01E-05

>  <ATMOSPHERIC_HYDROXYLATION_RATE_(AOH)_CM3/MOLECULE*SEC_OPERA_PRED>
1.38E-11

>  <BIOCONCENTRATION_FACTOR_OPERA_PRED>
52.49

>  <BIODEGRADATION_HALF_LIFE_DAYS_DAYS_OPERA_PRED>
6.89035

>  <BOILING_POINT_DEGC_OPERA_PRED>
353.763

>  <HENRYS_LAW_ATM-M3/MOLE_OPERA_PRED>
1.28E-07

>  <OPERA_KM_DAYS_OPERA_PRED>
0.14324

>  <OCTANOL_AIR_PARTITION_COEFF_LOGKOA_OPERA_PRED>
10.6306

>  <SOIL_ADSORPTION_COEFFICIENT_KOC_L/KG_OPERA_PRED>
1447.32

>  <OCTANOL_WATER_PARTITION_LOGP_OPERA_PRED>
4.29853

>  <MELTING_POINT_DEGC_OPERA_PRED>
104.939

>  <VAPOR_PRESSURE_MMHG_OPERA_PRED>
9.36E-06

>  <WATER_SOLUBILITY_MOL/L_OPERA_PRED>
2.11E-06

>  <Shape Index>
0.52381

>  <Molecular Flexibility>
0.44174

>  <Molecular Complexity>
0.7659

>  <Electronegative Atoms>
5

>  <Stereo Centers>
0

>  <Rotatable Bonds>
3

>  <Rings Closures>
2

>  <Aromatic Rings>
1

>  <Aromatic Atoms>
6

>  <Amides>
2

>  <Amines>
0

>  <Aromatic Nitrogens>
0

>  <Shape Index 2>
0.52381

>  <Molecular Flexibility 2>
0.44174

>  <Molecular Complexity 2>
0.7659

>  <Non-C/H Atoms>
5

>  <Electronegative Atoms 2>
5

>  <Stereo Centers 2>
0

>  <Rotatable Bonds 2>
3

>  <Rings Closures 2>
2

>  <Aromatic Rings 2>
1

>  <Aromatic Atoms 2>
6

>  <sp3-Atoms>
9

>  <Amides 2>
2

>  <Amines 2>
0

>  <Aromatic Nitrogens 2>
0

>  <Basic Nitrogens>
0

$$$$
Metribuzin
Actelion Java MolfileCreator 2.0

  0  0  0  0  0  0              0 V3000
M  V30 BEGIN CTAB
M  V30 COUNTS 14 14 0 0 0
M  V30 BEGIN ATOM
M  V30 1 S 0.0 0.0 0.0 0
M  V30 2 C 1.2929 -0.7473 0.0 0
M  V30 3 C -1.3166 -0.7473 0.0 0
M  V30 4 N 1.281 -2.2419 0.0 0
M  V30 5 N 2.5859 0.0118 0.0 0
M  V30 6 N 2.574 -2.9892 0.0 0
M  V30 7 N 2.574 1.5301 0.0 0
M  V30 8 C 3.8788 -0.7354 0.0 0
M  V30 9 C 3.867 -2.23 0.0 0
M  V30 10 O 5.1718 0.0237 0.0 0
M  V30 11 C 5.1599 -2.9773 0.0 0
M  V30 12 C 5.9072 -1.6606 0.0 0
M  V30 13 C 6.4529 -3.7246 0.0 0
M  V30 14 C 4.4007 -4.2703 0.0 0
M  V30 END ATOM
M  V30 BEGIN BOND
M  V30 1 1 1 2
M  V30 2 1 1 3
M  V30 3 2 2 4
M  V30 4 1 2 5
M  V30 5 1 4 6
M  V30 6 1 5 7
M  V30 7 1 5 8
M  V30 8 2 6 9
M  V30 9 2 8 10
M  V30 10 1 9 11
M  V30 11 1 11 12
M  V30 12 1 11 13
M  V30 13 1 11 14
M  V30 14 1 8 9
M  V30 END BOND
M  V30 END CTAB
M  END
>  <Molecule Name>
Metribuzin

>  <Order (spectra)>
322

>  <NAME>
Metribuzin

>  <Molecular Formula>
C8H14N4OS

>  <Monoisotopic Mass>
214.088831

>  <SMILES>
CSC1=NN=C(C(=O)N1N)C(C)(C)C

>  <InChI>
InChI=1S/C8H14N4OS/c1-8(2,3)5-6(13)12(9)7(14-4)11-10-5/h9H2,1-4H3

>  <InChIKey>
FOXFZRUHNHCZPX-UHFFFAOYSA-N

>  <Kingdom>
Organic compounds

>  <Superclass>
Organosulfur compounds

>  <Class>
Thioethers

>  <Subclass>
Aryl thioethers

>  <Parent Level 1>
Aryl thioethers

>  <Parent Level 2>


>  <Parent Level 3>


>  <cLogP>
1.0058

>  <cLogS>
-2.708

>  <Druglikeness>
-4.0821

>  <NP-class probability>
0.04

>  <SmilesFragFp 3>


>  <MS_READY_SMILES>
CSC1=NN=C(C(=O)N1N)C(C)(C)C

>  <MS_READY_InChI>
InChI=1S/C8H14N4OS/c1-8(2,3)5-6(13)12(9)7(14-4)11-10-5/h9H2,1-4H3

>  <QSAR_READY_SMILES>
CSC1=NN=C(C(=O)N1N)C(C)(C)C

>  <QSAR_READY_InChI>
InChI=1S/C8H14N4OS/c1-8(2,3)5-6(13)12(9)7(14-4)11-10-5/h9H2,1-4H3

>  <DTXSID>
DTXSID6024204

>  <DTXCID>
DTXCID404204

>  <CASRN>
21087-64-9

>  <EXPOCAST_MEDIAN_EXPOSURE_PREDICTION_MG/KG-BW/DAY>
2.36E-06

>  <BIOCONCENTRATION_FACTOR_TEST_PRED>
-

>  <BOILING_POINT_DEGC_TEST_PRED>
-

>  <48HR_DAPHNIA_LC50_MOL/L_TEST_PRED>
6.11E-06

>  <DENSITY_G/CM^3_TEST_PRED>
1.17

>  <DEVTOX_TEST_PRED>
0.056

>  <96HR_FATHEAD_MINNOW_MOL/L_TEST_PRED>
-

>  <FLASH_POINT_DEGC_TEST_PRED>
-

>  <MELTING_POINT_DEGC_TEST_PRED>
126.564

>  <AMES_MUTAGENICITY_TEST_PRED>
0.63

>  <ORAL_RAT_LD50_MOL/KG_TEST_PRED>
0.00426579

>  <SURFACE_TENSION_DYN/CM_TEST_PRED>
-

>  <THERMAL_CONDUCTIVITY_MW/(M*K)_TEST_PRED>
-

>  <TETRAHYMENA_PYRIFORMIS_IGC50_MOL/L_TEST_PRED>
-

>  <VISCOSITY_CP_CP_TEST_PRED>
-

>  <VAPOR_PRESSURE_MMHG_TEST_PRED>
-

>  <WATER_SOLUBILITY_MOL/L_TEST_PRED>
0.00851138

>  <ATMOSPHERIC_HYDROXYLATION_RATE_(AOH)_CM3/MOLECULE*SEC_OPERA_PRED>
1.89E-11

>  <BIOCONCENTRATION_FACTOR_OPERA_PRED>
3.32533

>  <BIODEGRADATION_HALF_LIFE_DAYS_DAYS_OPERA_PRED>
3.75993

>  <BOILING_POINT_DEGC_OPERA_PRED>
300.037

>  <HENRYS_LAW_ATM-M3/MOLE_OPERA_PRED>
1.22E-08

>  <OPERA_KM_DAYS_OPERA_PRED>
0.100676

>  <OCTANOL_AIR_PARTITION_COEFF_LOGKOA_OPERA_PRED>
7.51384

>  <SOIL_ADSORPTION_COEFFICIENT_KOC_L/KG_OPERA_PRED>
51.3347

>  <OCTANOL_WATER_PARTITION_LOGP_OPERA_PRED>
1.70002

>  <MELTING_POINT_DEGC_OPERA_PRED>
126.046

>  <VAPOR_PRESSURE_MMHG_OPERA_PRED>
4.39E-07

>  <WATER_SOLUBILITY_MOL/L_OPERA_PRED>
0.00519961

>  <Shape Index>
0.57143

>  <Molecular Flexibility>
0.40879

>  <Molecular Complexity>
0.68273

>  <Electronegative Atoms>
6

>  <Stereo Centers>
0

>  <Rotatable Bonds>
2

>  <Rings Closures>
1

>  <Aromatic Rings>
0

>  <Aromatic Atoms>
0

>  <Amides>
0

>  <Amines>
0

>  <Aromatic Nitrogens>
0

>  <Shape Index 2>
0.57143

>  <Molecular Flexibility 2>
0.40879

>  <Molecular Complexity 2>
0.68273

>  <Non-C/H Atoms>
6

>  <Electronegative Atoms 2>
6

>  <Stereo Centers 2>
0

>  <Rotatable Bonds 2>
2

>  <Rings Closures 2>
1

>  <Aromatic Rings 2>
0

>  <Aromatic Atoms 2>
0

>  <sp3-Atoms>
7

>  <Amides 2>
0

>  <Amines 2>
0

>  <Aromatic Nitrogens 2>
0

>  <Basic Nitrogens>
0

$$$$
Atrazine
Actelion Java MolfileCreator 2.0

  0  0  0  0  0  0              0 V3000
M  V30 BEGIN CTAB
M  V30 COUNTS 14 14 0 0 0
M  V30 BEGIN ATOM
M  V30 1 Cl 0.0 0.0 0.0 0
M  V30 2 C -0.0118 -1.4921 0.0 0
M  V30 3 N -1.3263 -2.2382 0.0 0
M  V30 4 N 1.2789 -2.2382 0.0 0
M  V30 5 C -1.3382 -3.7303 0.0 0
M  V30 6 C 1.2671 -3.7303 0.0 0
M  V30 7 N -0.0473 -4.4646 0.0 0
M  V30 8 N -2.6527 -4.4764 0.0 0
M  V30 9 N 2.5579 -4.4764 0.0 0
M  V30 10 C -3.9672 -3.7185 0.0 0
M  V30 11 C 2.5461 -5.9686 0.0 0
M  V30 12 C -3.979 -2.2027 0.0 0
M  V30 13 C -5.2817 -4.4646 0.0 0
M  V30 14 C 3.8369 -6.7146 0.0 0
M  V30 END ATOM
M  V30 BEGIN BOND
M  V30 1 1 1 2
M  V30 2 2 2 3
M  V30 3 1 2 4
M  V30 4 1 3 5
M  V30 5 2 4 6
M  V30 6 2 5 7
M  V30 7 1 5 8
M  V30 8 1 6 9
M  V30 9 1 8 10
M  V30 10 1 9 11
M  V30 11 1 10 12
M  V30 12 1 10 13
M  V30 13 1 11 14
M  V30 14 1 6 7
M  V30 END BOND
M  V30 END CTAB
M  END
>  <Molecule Name>
Atrazine

>  <Order (spectra)>
207

>  <NAME>
Atrazine

>  <Molecular Formula>
C8H14N5Cl

>  <Monoisotopic Mass>
215.093772

>  <SMILES>
CCNC1=NC(NC(C)C)=NC(Cl)=N1

>  <InChI>
InChI=1S/C8H14ClN5/c1-4-10-7-12-6(9)13-8(14-7)11-5(2)3/h5H,4H2,1-3H3,(H2,10,11,12,13,14)

>  <InChIKey>
MXWJVTOOROXGIU-UHFFFAOYSA-N

>  <Kingdom>
Organic compounds

>  <Superclass>
Organoheterocyclic compounds

>  <Class>
Triazines

>  <Subclass>
1,3,5-triazines

>  <Parent Level 1>
Halo-S-triazines

>  <Parent Level 2>
Chloro-s-triazines

>  <Parent Level 3>


>  <cLogP>
2.0257

>  <cLogS>
-3.134

>  <Druglikeness>
1.3079

>  <NP-class probability>
0.88

>  <SmilesFragFp 3>


>  <MS_READY_SMILES>
CCNC1=NC(NC(C)C)=NC(Cl)=N1

>  <MS_READY_InChI>
InChI=1S/C8H14ClN5/c1-4-10-7-12-6(9)13-8(14-7)11-5(2)3/h5H,4H2,1-3H3,(H2,10,11,12,13,14)

>  <QSAR_READY_SMILES>
CCNC1=NC(NC(C)C)=NC(Cl)=N1

>  <QSAR_READY_InChI>
InChI=1S/C8H14ClN5/c1-4-10-7-12-6(9)13-8(14-7)11-5(2)3/h5H,4H2,1-3H3,(H2,10,11,12,13,14)

>  <DTXSID>
DTXSID9020112

>  <DTXCID>
DTXCID90112

>  <CASRN>
1912-24-9

>  <EXPOCAST_MEDIAN_EXPOSURE_PREDICTION_MG/KG-BW/DAY>
1.08E-06

>  <BIOCONCENTRATION_FACTOR_TEST_PRED>
8.49181

>  <BOILING_POINT_DEGC_TEST_PRED>
312.186

>  <48HR_DAPHNIA_LC50_MOL/L_TEST_PRED>
8.11E-05

>  <DENSITY_G/CM^3_TEST_PRED>
1.236

>  <DEVTOX_TEST_PRED>
0.556

>  <96HR_FATHEAD_MINNOW_MOL/L_TEST_PRED>
0.000088308

>  <FLASH_POINT_DEGC_TEST_PRED>
175.284

>  <MELTING_POINT_DEGC_TEST_PRED>
154.06

>  <AMES_MUTAGENICITY_TEST_PRED>
0.196

>  <ORAL_RAT_LD50_MOL/KG_TEST_PRED>
0.00635331

>  <SURFACE_TENSION_DYN/CM_TEST_PRED>
-

>  <THERMAL_CONDUCTIVITY_MW/(M*K)_TEST_PRED>
158.367

>  <TETRAHYMENA_PYRIFORMIS_IGC50_MOL/L_TEST_PRED>
-

>  <VISCOSITY_CP_CP_TEST_PRED>
-

>  <VAPOR_PRESSURE_MMHG_TEST_PRED>
4.97E-07

>  <WATER_SOLUBILITY_MOL/L_TEST_PRED>
0.000440555

>  <ATMOSPHERIC_HYDROXYLATION_RATE_(AOH)_CM3/MOLECULE*SEC_OPERA_PRED>
1.67E-11

>  <BIOCONCENTRATION_FACTOR_OPERA_PRED>
7.94979

>  <BIODEGRADATION_HALF_LIFE_DAYS_DAYS_OPERA_PRED>
4.90761

>  <BOILING_POINT_DEGC_OPERA_PRED>
337.108

>  <HENRYS_LAW_ATM-M3/MOLE_OPERA_PRED>
1.24E-08

>  <OPERA_KM_DAYS_OPERA_PRED>
0.0892399

>  <OCTANOL_AIR_PARTITION_COEFF_LOGKOA_OPERA_PRED>
8.38479

>  <SOIL_ADSORPTION_COEFFICIENT_KOC_L/KG_OPERA_PRED>
173.852

>  <OCTANOL_WATER_PARTITION_LOGP_OPERA_PRED>
2.61148

>  <MELTING_POINT_DEGC_OPERA_PRED>
173.141

>  <VAPOR_PRESSURE_MMHG_OPERA_PRED>
2.88E-07

>  <WATER_SOLUBILITY_MOL/L_OPERA_PRED>
0.000198547

>  <Shape Index>
0.64286

>  <Molecular Flexibility>
0.45644

>  <Molecular Complexity>
0.56446

>  <Electronegative Atoms>
6

>  <Stereo Centers>
0

>  <Rotatable Bonds>
4

>  <Rings Closures>
1

>  <Aromatic Rings>
1

>  <Aromatic Atoms>
6

>  <Amides>
0

>  <Amines>
0

>  <Aromatic Nitrogens>
3

>  <Shape Index 2>
0.64286

>  <Molecular Flexibility 2>
0.45644

>  <Molecular Complexity 2>
0.56446

>  <Non-C/H Atoms>
6

>  <Electronegative Atoms 2>
6

>  <Stereo Centers 2>
0

>  <Rotatable Bonds 2>
4

>  <Rings Closures 2>
1

>  <Aromatic Rings 2>
1

>  <Aromatic Atoms 2>
6

>  <sp3-Atoms>
5

>  <Amides 2>
0

>  <Amines 2>
0

>  <Aromatic Nitrogens 2>
3

>  <Basic Nitrogens>
0

$$$$
Terbuthylazine
Actelion Java MolfileCreator 2.0

  0  0  0  0  0  0              0 V3000
M  V30 BEGIN CTAB
M  V30 COUNTS 15 15 0 0 0
M  V30 BEGIN ATOM
M  V30 1 Cl 0.0 0.0 0.0 0
M  V30 2 C -1.3035 0.7516 0.0 0
M  V30 3 N -1.3153 2.2548 0.0 0
M  V30 4 N -2.6071 0.0234 0.0 0
M  V30 5 C -2.6189 3.0064 0.0 0
M  V30 6 C -3.9107 0.7751 0.0 0
M  V30 7 N -3.9225 2.2666 0.0 0
M  V30 8 N -2.6306 4.5097 0.0 0
M  V30 9 N -5.2143 0.0352 0.0 0
M  V30 10 C -3.9342 5.2613 0.0 0
M  V30 11 C -6.5179 0.7868 0.0 0
M  V30 12 C -4.6858 3.9812 0.0 0
M  V30 13 C -5.2378 6.0129 0.0 0
M  V30 14 C -3.1943 6.5649 0.0 0
M  V30 15 C -7.8215 0.0469 0.0 0
M  V30 END ATOM
M  V30 BEGIN BOND
M  V30 1 1 1 2
M  V30 2 2 2 3
M  V30 3 1 2 4
M  V30 4 1 3 5
M  V30 5 2 4 6
M  V30 6 2 5 7
M  V30 7 1 5 8
M  V30 8 1 6 9
M  V30 9 1 8 10
M  V30 10 1 9 11
M  V30 11 1 10 12
M  V30 12 1 10 13
M  V30 13 1 10 14
M  V30 14 1 11 15
M  V30 15 1 6 7
M  V30 END BOND
M  V30 END CTAB
M  END
>  <Molecule Name>
Terbuthylazine

>  <Order (spectra)>
215

>  <NAME>
Terbuthylazine

>  <Molecular Formula>
C9H16N5Cl

>  <Monoisotopic Mass>
229.109422

>  <SMILES>
CCNC1=NC(NC(C)(C)C)=NC(Cl)=N1

>  <InChI>
InChI=1S/C9H16ClN5/c1-5-11-7-12-6(10)13-8(14-7)15-9(2,3)4/h5H2,1-4H3,(H2,11,12,13,14,15)

>  <InChIKey>
FZXISNSWEXTPMF-UHFFFAOYSA-N

>  <Kingdom>
Organic compounds

>  <Superclass>
Organoheterocyclic compounds

>  <Class>
Triazines

>  <Subclass>
Aminotriazines

>  <Parent Level 1>
Aminotriazines

>  <Parent Level 2>


>  <Parent Level 3>


>  <cLogP>
2.4063

>  <cLogS>
-3.243

>  <Druglikeness>
0.83216

>  <NP-class probability>
0.72

>  <SmilesFragFp 3>


>  <MS_READY_SMILES>
CCNC1=NC(NC(C)(C)C)=NC(Cl)=N1

>  <MS_READY_InChI>
InChI=1S/C9H16ClN5/c1-5-11-7-12-6(10)13-8(14-7)15-9(2,3)4/h5H2,1-4H3,(H2,11,12,13,14,15)

>  <QSAR_READY_SMILES>
CCNC1=NC(NC(C)(C)C)=NC(Cl)=N1

>  <QSAR_READY_InChI>
InChI=1S/C9H16ClN5/c1-5-11-7-12-6(10)13-8(14-7)15-9(2,3)4/h5H2,1-4H3,(H2,11,12,13,14,15)

>  <DTXSID>
DTXSID4027608

>  <DTXCID>
DTXCID107608

>  <CASRN>
5915-41-3

>  <EXPOCAST_MEDIAN_EXPOSURE_PREDICTION_MG/KG-BW/DAY>
2.33E-06

>  <BIOCONCENTRATION_FACTOR_TEST_PRED>
11.4815

>  <BOILING_POINT_DEGC_TEST_PRED>
319.277

>  <48HR_DAPHNIA_LC50_MOL/L_TEST_PRED>
0.000076913

>  <DENSITY_G/CM^3_TEST_PRED>
1.234

>  <DEVTOX_TEST_PRED>
0.726

>  <96HR_FATHEAD_MINNOW_MOL/L_TEST_PRED>
0.000104713

>  <FLASH_POINT_DEGC_TEST_PRED>
178.469

>  <MELTING_POINT_DEGC_TEST_PRED>
165.673

>  <AMES_MUTAGENICITY_TEST_PRED>
0.205

>  <ORAL_RAT_LD50_MOL/KG_TEST_PRED>
0.0049204

>  <SURFACE_TENSION_DYN/CM_TEST_PRED>
-

>  <THERMAL_CONDUCTIVITY_MW/(M*K)_TEST_PRED>
153.089

>  <TETRAHYMENA_PYRIFORMIS_IGC50_MOL/L_TEST_PRED>
-

>  <VISCOSITY_CP_CP_TEST_PRED>
-

>  <VAPOR_PRESSURE_MMHG_TEST_PRED>
8.99E-07

>  <WATER_SOLUBILITY_MOL/L_TEST_PRED>
0.000336512

>  <ATMOSPHERIC_HYDROXYLATION_RATE_(AOH)_CM3/MOLECULE*SEC_OPERA_PRED>
1.10E-11

>  <BIOCONCENTRATION_FACTOR_OPERA_PRED>
15.8961

>  <BIODEGRADATION_HALF_LIFE_DAYS_DAYS_OPERA_PRED>
4.04673

>  <BOILING_POINT_DEGC_OPERA_PRED>
338.478

>  <HENRYS_LAW_ATM-M3/MOLE_OPERA_PRED>
1.23E-08

>  <OPERA_KM_DAYS_OPERA_PRED>
0.126138

>  <OCTANOL_AIR_PARTITION_COEFF_LOGKOA_OPERA_PRED>
8.41645

>  <SOIL_ADSORPTION_COEFFICIENT_KOC_L/KG_OPERA_PRED>
209.524

>  <OCTANOL_WATER_PARTITION_LOGP_OPERA_PRED>
3.20992

>  <MELTING_POINT_DEGC_OPERA_PRED>
178.102

>  <VAPOR_PRESSURE_MMHG_OPERA_PRED>
1.10E-06

>  <WATER_SOLUBILITY_MOL/L_OPERA_PRED>
3.51E-05

>  <Shape Index>
0.6

>  <Molecular Flexibility>
0.54877

>  <Molecular Complexity>
0.57248

>  <Electronegative Atoms>
6

>  <Stereo Centers>
0

>  <Rotatable Bonds>
4

>  <Rings Closures>
1

>  <Aromatic Rings>
1

>  <Aromatic Atoms>
6

>  <Amides>
0

>  <Amines>
0

>  <Aromatic Nitrogens>
3

>  <Shape Index 2>
0.6

>  <Molecular Flexibility 2>
0.54877

>  <Molecular Complexity 2>
0.57248

>  <Non-C/H Atoms>
6

>  <Electronegative Atoms 2>
6

>  <Stereo Centers 2>
0

>  <Rotatable Bonds 2>
4

>  <Rings Closures 2>
1

>  <Aromatic Rings 2>
1

>  <Aromatic Atoms 2>
6

>  <sp3-Atoms>
6

>  <Amides 2>
0

>  <Amines 2>
0

>  <Aromatic Nitrogens 2>
3

>  <Basic Nitrogens>
0

$$$$
Ametryn
Actelion Java MolfileCreator 2.0

  0  0  0  0  0  0              0 V3000
M  V30 BEGIN CTAB
M  V30 COUNTS 15 15 0 0 0
M  V30 BEGIN ATOM
M  V30 1 S 0.0 0.0 0.0 0
M  V30 2 C -0.0118 -1.491 0.0 0
M  V30 3 C -1.3135 0.7573 0.0 0
M  V30 4 N -1.3253 -2.2365 0.0 0
M  V30 5 N 1.278 -2.2365 0.0 0
M  V30 6 C -1.3371 -3.7275 0.0 0
M  V30 7 C 1.2661 -3.7275 0.0 0
M  V30 8 N -0.0473 -4.4611 0.0 0
M  V30 9 N -2.6506 -4.473 0.0 0
M  V30 10 N 2.556 -4.473 0.0 0
M  V30 11 C -3.9641 -3.7156 0.0 0
M  V30 12 C 2.5441 -5.964 0.0 0
M  V30 13 C -3.976 -2.201 0.0 0
M  V30 14 C -5.2776 -4.4611 0.0 0
M  V30 15 C 3.834 -6.7095 0.0 0
M  V30 END ATOM
M  V30 BEGIN BOND
M  V30 1 1 1 2
M  V30 2 1 1 3
M  V30 3 2 2 4
M  V30 4 1 2 5
M  V30 5 1 4 6
M  V30 6 2 5 7
M  V30 7 2 6 8
M  V30 8 1 6 9
M  V30 9 1 7 10
M  V30 10 1 9 11
M  V30 11 1 10 12
M  V30 12 1 11 13
M  V30 13 1 11 14
M  V30 14 1 12 15
M  V30 15 1 7 8
M  V30 END BOND
M  V30 END CTAB
M  END
>  <Molecule Name>
Ametryn

>  <Order (spectra)>
276

>  <NAME>
Ametryn

>  <Molecular Formula>
C9H17N5S

>  <Monoisotopic Mass>
227.120465

>  <SMILES>
CCNC1=NC(SC)=NC(NC(C)C)=N1

>  <InChI>
InChI=1S/C9H17N5S/c1-5-10-7-12-8(11-6(2)3)14-9(13-7)15-4/h6H,5H2,1-4H3,(H2,10,11,12,13,14)

>  <InChIKey>
RQVYBGPQFYCBGX-UHFFFAOYSA-N

>  <Kingdom>
Organic compounds

>  <Superclass>
Organoheterocyclic compounds

>  <Class>
Triazines

>  <Subclass>
1,3,5-triazines

>  <Parent Level 1>
Methylthio-s-triazines

>  <Parent Level 2>


>  <Parent Level 3>


>  <cLogP>
1.8969

>  <cLogS>
-3.246

>  <Druglikeness>
1.3861

>  <NP-class probability>
0.06

>  <SmilesFragFp 3>


>  <MS_READY_SMILES>
CCNC1=NC(SC)=NC(NC(C)C)=N1

>  <MS_READY_InChI>
InChI=1S/C9H17N5S/c1-5-10-7-12-8(11-6(2)3)14-9(13-7)15-4/h6H,5H2,1-4H3,(H2,10,11,12,13,14)

>  <QSAR_READY_SMILES>
CCNC1=NC(SC)=NC(NC(C)C)=N1

>  <QSAR_READY_InChI>
InChI=1S/C9H17N5S/c1-5-10-7-12-8(11-6(2)3)14-9(13-7)15-4/h6H,5H2,1-4H3,(H2,10,11,12,13,14)

>  <DTXSID>
DTXSID1023869

>  <DTXCID>
DTXCID303869

>  <CASRN>
834-12-8

>  <EXPOCAST_MEDIAN_EXPOSURE_PREDICTION_MG/KG-BW/DAY>
2.23E-06

>  <BIOCONCENTRATION_FACTOR_TEST_PRED>
5.28445

>  <BOILING_POINT_DEGC_TEST_PRED>
360.753

>  <48HR_DAPHNIA_LC50_MOL/L_TEST_PRED>
8.13E-05

>  <DENSITY_G/CM^3_TEST_PRED>
1.175

>  <DEVTOX_TEST_PRED>
0.608

>  <96HR_FATHEAD_MINNOW_MOL/L_TEST_PRED>
6.01E-05

>  <FLASH_POINT_DEGC_TEST_PRED>
186.304

>  <MELTING_POINT_DEGC_TEST_PRED>
87.819

>  <AMES_MUTAGENICITY_TEST_PRED>
0.207

>  <ORAL_RAT_LD50_MOL/KG_TEST_PRED>
0.00456037

>  <SURFACE_TENSION_DYN/CM_TEST_PRED>
-

>  <THERMAL_CONDUCTIVITY_MW/(M*K)_TEST_PRED>
-

>  <TETRAHYMENA_PYRIFORMIS_IGC50_MOL/L_TEST_PRED>
-

>  <VISCOSITY_CP_CP_TEST_PRED>
-

>  <VAPOR_PRESSURE_MMHG_TEST_PRED>
8.71E-07

>  <WATER_SOLUBILITY_MOL/L_TEST_PRED>
0.00110662

>  <ATMOSPHERIC_HYDROXYLATION_RATE_(AOH)_CM3/MOLECULE*SEC_OPERA_PRED>
1.50E-11

>  <BIOCONCENTRATION_FACTOR_OPERA_PRED>
6.50732

>  <BIODEGRADATION_HALF_LIFE_DAYS_DAYS_OPERA_PRED>
3.35341

>  <BOILING_POINT_DEGC_OPERA_PRED>
344.987

>  <HENRYS_LAW_ATM-M3/MOLE_OPERA_PRED>
2.34E-08

>  <OPERA_KM_DAYS_OPERA_PRED>
0.138197

>  <OCTANOL_AIR_PARTITION_COEFF_LOGKOA_OPERA_PRED>
9.06819

>  <SOIL_ADSORPTION_COEFFICIENT_KOC_L/KG_OPERA_PRED>
389.067

>  <OCTANOL_WATER_PARTITION_LOGP_OPERA_PRED>
2.9793

>  <MELTING_POINT_DEGC_OPERA_PRED>
88.05

>  <VAPOR_PRESSURE_MMHG_OPERA_PRED>
2.73E-06

>  <WATER_SOLUBILITY_MOL/L_OPERA_PRED>
0.000901246

>  <Shape Index>
0.6

>  <Molecular Flexibility>
0.47999

>  <Molecular Complexity>
0.58959

>  <Electronegative Atoms>
6

>  <Stereo Centers>
0

>  <Rotatable Bonds>
5

>  <Rings Closures>
1

>  <Aromatic Rings>
1

>  <Aromatic Atoms>
6

>  <Amides>
0

>  <Amines>
0

>  <Aromatic Nitrogens>
3

>  <Shape Index 2>
0.6

>  <Molecular Flexibility 2>
0.47999

>  <Molecular Complexity 2>
0.58959

>  <Non-C/H Atoms>
6

>  <Electronegative Atoms 2>
6

>  <Stereo Centers 2>
0

>  <Rotatable Bonds 2>
5

>  <Rings Closures 2>
1

>  <Aromatic Rings 2>
1

>  <Aromatic Atoms 2>
6

>  <sp3-Atoms>
7

>  <Amides 2>
0

>  <Amines 2>
0

>  <Aromatic Nitrogens 2>
3

>  <Basic Nitrogens>
0

$$$$
Prometon
Actelion Java MolfileCreator 2.0

  0  0  0  0  0  0              0 V3000
M  V30 BEGIN CTAB
M  V30 COUNTS 16 16 0 0 0
M  V30 BEGIN ATOM
M  V30 1 O 0.0 0.0 0.0 0
M  V30 2 C -0.0118 -1.4903 0.0 0
M  V30 3 C -1.3129 0.757 0.0 0
M  V30 4 N -1.3247 -2.2355 0.0 0
M  V30 5 N 1.2774 -2.2355 0.0 0
M  V30 6 C -1.3365 -3.7259 0.0 0
M  V30 7 C 1.2656 -3.7259 0.0 0
M  V30 8 N -0.0473 -4.4592 0.0 0
M  V30 9 N -2.6495 -4.471 0.0 0
M  V30 10 N 2.5549 -4.471 0.0 0
M  V30 11 C -3.9624 -3.714 0.0 0
M  V30 12 C 2.543 -5.9614 0.0 0
M  V30 13 C -3.9742 -2.2 0.0 0
M  V30 14 C -5.2754 -4.4592 0.0 0
M  V30 15 C 1.2301 -6.7066 0.0 0
M  V30 16 C 3.8323 -6.7066 0.0 0
M  V30 END ATOM
M  V30 BEGIN BOND
M  V30 1 1 1 2
M  V30 2 1 1 3
M  V30 3 2 2 4
M  V30 4 1 2 5
M  V30 5 1 4 6
M  V30 6 2 5 7
M  V30 7 2 6 8
M  V30 8 1 6 9
M  V30 9 1 7 10
M  V30 10 1 9 11
M  V30 11 1 10 12
M  V30 12 1 11 13
M  V30 13 1 11 14
M  V30 14 1 12 15
M  V30 15 1 12 16
M  V30 16 1 7 8
M  V30 END BOND
M  V30 END CTAB
M  END
>  <Molecule Name>
Prometon

>  <Order (spectra)>
295

>  <NAME>
Prometon

>  <Molecular Formula>
C10H19N5O

>  <Monoisotopic Mass>
225.15896

>  <SMILES>
COC1=NC(NC(C)C)=NC(NC(C)C)=N1

>  <InChI>
InChI=1S/C10H19N5O/c1-6(2)11-8-13-9(12-7(3)4)15-10(14-8)16-5/h6-7H,1-5H3,(H2,11,12,13,14,15)

>  <InChIKey>
ISEUFVQQFVOBCY-UHFFFAOYSA-N

>  <Kingdom>
Organic compounds

>  <Superclass>
Organoheterocyclic compounds

>  <Class>
Triazines

>  <Subclass>
1,3,5-triazines

>  <Parent Level 1>
Alkoxy-S-triazines

>  <Parent Level 2>
2-methoxy-1,3,5-triazines

>  <Parent Level 3>


>  <cLogP>
1.8364

>  <cLogS>
-3.296

>  <Druglikeness>
0.67879

>  <NP-class probability>
0.13

>  <SmilesFragFp 3>


>  <MS_READY_SMILES>
COC1=NC(NC(C)C)=NC(NC(C)C)=N1

>  <MS_READY_InChI>
InChI=1S/C10H19N5O/c1-6(2)11-8-13-9(12-7(3)4)15-10(14-8)16-5/h6-7H,1-5H3,(H2,11,12,13,14,15)

>  <QSAR_READY_SMILES>
COC1=NC(NC(C)C)=NC(NC(C)C)=N1

>  <QSAR_READY_InChI>
InChI=1S/C10H19N5O/c1-6(2)11-8-13-9(12-7(3)4)15-10(14-8)16-5/h6-7H,1-5H3,(H2,11,12,13,14,15)

>  <DTXSID>
DTXSID6022341

>  <DTXCID>
DTXCID402341

>  <CASRN>
1610-18-0

>  <EXPOCAST_MEDIAN_EXPOSURE_PREDICTION_MG/KG-BW/DAY>
8.68E-07

>  <BIOCONCENTRATION_FACTOR_TEST_PRED>
7.8886

>  <BOILING_POINT_DEGC_TEST_PRED>
329.884

>  <48HR_DAPHNIA_LC50_MOL/L_TEST_PRED>
0.000097051

>  <DENSITY_G/CM^3_TEST_PRED>
1.135

>  <DEVTOX_TEST_PRED>
0.947

>  <96HR_FATHEAD_MINNOW_MOL/L_TEST_PRED>
0.0001

>  <FLASH_POINT_DEGC_TEST_PRED>
173.179

>  <MELTING_POINT_DEGC_TEST_PRED>
117.416

>  <AMES_MUTAGENICITY_TEST_PRED>
0.106

>  <ORAL_RAT_LD50_MOL/KG_TEST_PRED>
0.00269153

>  <SURFACE_TENSION_DYN/CM_TEST_PRED>
-

>  <THERMAL_CONDUCTIVITY_MW/(M*K)_TEST_PRED>
-

>  <TETRAHYMENA_PYRIFORMIS_IGC50_MOL/L_TEST_PRED>
-

>  <VISCOSITY_CP_CP_TEST_PRED>
-

>  <VAPOR_PRESSURE_MMHG_TEST_PRED>
7.52E-07

>  <WATER_SOLUBILITY_MOL/L_TEST_PRED>
0.00400867

>  <ATMOSPHERIC_HYDROXYLATION_RATE_(AOH)_CM3/MOLECULE*SEC_OPERA_PRED>
1.54E-11

>  <BIOCONCENTRATION_FACTOR_OPERA_PRED>
3.054

>  <BIODEGRADATION_HALF_LIFE_DAYS_DAYS_OPERA_PRED>
3.81693

>  <BOILING_POINT_DEGC_OPERA_PRED>
336.289

>  <HENRYS_LAW_ATM-M3/MOLE_OPERA_PRED>
3.00E-08

>  <OPERA_KM_DAYS_OPERA_PRED>
0.114479

>  <OCTANOL_AIR_PARTITION_COEFF_LOGKOA_OPERA_PRED>
8.41333

>  <SOIL_ADSORPTION_COEFFICIENT_KOC_L/KG_OPERA_PRED>
397.963

>  <OCTANOL_WATER_PARTITION_LOGP_OPERA_PRED>
2.99119

>  <MELTING_POINT_DEGC_OPERA_PRED>
91.6904

>  <VAPOR_PRESSURE_MMHG_OPERA_PRED>
2.30E-06

>  <WATER_SOLUBILITY_MOL/L_OPERA_PRED>
0.00304746

>  <Shape Index>
0.5625

>  <Molecular Flexibility>
0.46405

>  <Molecular Complexity>
0.59413

>  <Electronegative Atoms>
6

>  <Stereo Centers>
0

>  <Rotatable Bonds>
5

>  <Rings Closures>
1

>  <Aromatic Rings>
1

>  <Aromatic Atoms>
6

>  <Amides>
0

>  <Amines>
0

>  <Aromatic Nitrogens>
3

>  <Shape Index 2>
0.5625

>  <Molecular Flexibility 2>
0.46405

>  <Molecular Complexity 2>
0.59413

>  <Non-C/H Atoms>
6

>  <Electronegative Atoms 2>
6

>  <Stereo Centers 2>
0

>  <Rotatable Bonds 2>
5

>  <Rings Closures 2>
1

>  <Aromatic Rings 2>
1

>  <Aromatic Atoms 2>
6

>  <sp3-Atoms>
8

>  <Amides 2>
0

>  <Amines 2>
0

>  <Aromatic Nitrogens 2>
3

>  <Basic Nitrogens>
0

$$$$
Secbumeton
Actelion Java MolfileCreator 2.0

  0  0  0  0  0  0              0 V3000
M  V30 BEGIN CTAB
M  V30 COUNTS 16 16 0 0 0
M  V30 BEGIN ATOM
M  V30 1 O 0.0 0.0 0.0 0
M  V30 2 C -1.3101 -0.7317 0.0 0
M  V30 3 C -0.0118 1.5107 0.0 0
M  V30 4 N -2.6202 0.0236 0.0 0
M  V30 5 N -1.3219 -2.2189 0.0 0
M  V30 6 C -3.9303 -0.7081 0.0 0
M  V30 7 C -2.632 -2.9507 0.0 0
M  V30 8 N -3.9421 -2.1953 0.0 0
M  V30 9 N -5.2405 0.0472 0.0 0
M  V30 10 N -2.6438 -4.4379 0.0 0
M  V30 11 C -6.5506 -0.6845 0.0 0 CFG=2
M  V30 12 C -3.9539 -5.1696 0.0 0
M  V30 13 C -7.8607 0.0708 0.0 0
M  V30 14 C -6.5624 -2.1717 0.0 0
M  V30 15 C -3.9657 -6.6568 0.0 0
M  V30 16 C -9.1708 -0.6609 0.0 0
M  V30 END ATOM
M  V30 BEGIN BOND
M  V30 1 1 1 2
M  V30 2 1 1 3
M  V30 3 2 2 4
M  V30 4 1 2 5
M  V30 5 1 4 6
M  V30 6 2 5 7
M  V30 7 2 6 8
M  V30 8 1 6 9
M  V30 9 1 7 10
M  V30 10 1 11 9 CFG=1
M  V30 11 1 10 12
M  V30 12 1 11 13
M  V30 13 1 11 14
M  V30 14 1 12 15
M  V30 15 1 13 16
M  V30 16 1 7 8
M  V30 END BOND
M  V30 BEGIN COLLECTION
M  V30 MDLV30/STERAC1 ATOMS=(1 11)
M  V30 END COLLECTION
M  V30 END CTAB
M  END
>  <Molecule Name>
Secbumeton

>  <Order (spectra)>
303

>  <NAME>
Secbumeton

>  <Molecular Formula>
C10H19N5O

>  <Monoisotopic Mass>
225.15896

>  <SMILES>
CCNC1=NC(OC)=NC(NC(C)CC)=N1

>  <InChI>
InChI=1S/C10H19N5O/c1-5-7(3)12-9-13-8(11-6-2)14-10(15-9)16-4/h7H,5-6H2,1-4H3,(H2,11,12,13,14,15)/t7-/m0/s1

>  <InChIKey>
ZJMZZNVGNSWOOM-UHFFFAOYSA-N

>  <Kingdom>
Organic compounds

>  <Superclass>
Organoheterocyclic compounds

>  <Class>
Triazines

>  <Subclass>
1,3,5-triazines

>  <Parent Level 1>
Alkoxy-S-triazines

>  <Parent Level 2>
2-methoxy-1,3,5-triazines

>  <Parent Level 3>


>  <cLogP>
1.9315

>  <cLogS>
-3.188

>  <Druglikeness>
1.8064

>  <NP-class probability>
0.16

>  <SmilesFragFp 3>


>  <MS_READY_SMILES>
CCNC1=NC(OC)=NC(NC(C)CC)=N1

>  <MS_READY_InChI>
InChI=1S/C10H19N5O/c1-5-7(3)12-9-13-8(11-6-2)14-10(15-9)16-4/h7H,5-6H2,1-4H3,(H2,11,12,13,14,15)/t7-/m0/s1

>  <QSAR_READY_SMILES>
CCNC1=NC(OC)=NC(NC(C)CC)=N1

>  <QSAR_READY_InChI>
InChI=1S/C10H19N5O/c1-5-7(3)12-9-13-8(11-6-2)14-10(15-9)16-4/h7H,5-6H2,1-4H3,(H2,11,12,13,14,15)/t7-/m0/s1

>  <DTXSID>
DTXSID8037594

>  <DTXCID>
DTXCID6017594

>  <CASRN>
26259-45-0

>  <EXPOCAST_MEDIAN_EXPOSURE_PREDICTION_MG/KG-BW/DAY>
3.24E-06

>  <BIOCONCENTRATION_FACTOR_TEST_PRED>
5.72796

>  <BOILING_POINT_DEGC_TEST_PRED>
328.154

>  <48HR_DAPHNIA_LC50_MOL/L_TEST_PRED>
0.00011246

>  <DENSITY_G/CM^3_TEST_PRED>
1.153

>  <DEVTOX_TEST_PRED>
0.998

>  <96HR_FATHEAD_MINNOW_MOL/L_TEST_PRED>
0.000088308

>  <FLASH_POINT_DEGC_TEST_PRED>
176.329

>  <MELTING_POINT_DEGC_TEST_PRED>
130.65

>  <AMES_MUTAGENICITY_TEST_PRED>
0.132

>  <ORAL_RAT_LD50_MOL/KG_TEST_PRED>
0.00416869

>  <SURFACE_TENSION_DYN/CM_TEST_PRED>
-

>  <THERMAL_CONDUCTIVITY_MW/(M*K)_TEST_PRED>
-

>  <TETRAHYMENA_PYRIFORMIS_IGC50_MOL/L_TEST_PRED>
-

>  <VISCOSITY_CP_CP_TEST_PRED>
-

>  <VAPOR_PRESSURE_MMHG_TEST_PRED>
6.12E-07

>  <WATER_SOLUBILITY_MOL/L_TEST_PRED>
0.00578096

>  <ATMOSPHERIC_HYDROXYLATION_RATE_(AOH)_CM3/MOLECULE*SEC_OPERA_PRED>
1.57E-11

>  <BIOCONCENTRATION_FACTOR_OPERA_PRED>
3.07712

>  <BIODEGRADATION_HALF_LIFE_DAYS_DAYS_OPERA_PRED>
4.62312

>  <BOILING_POINT_DEGC_OPERA_PRED>
336.708

>  <HENRYS_LAW_ATM-M3/MOLE_OPERA_PRED>
2.97E-08

>  <OPERA_KM_DAYS_OPERA_PRED>
0.114924

>  <OCTANOL_AIR_PARTITION_COEFF_LOGKOA_OPERA_PRED>
9.00026

>  <SOIL_ADSORPTION_COEFFICIENT_KOC_L/KG_OPERA_PRED>
600.589

>  <OCTANOL_WATER_PARTITION_LOGP_OPERA_PRED>
3.10251

>  <MELTING_POINT_DEGC_OPERA_PRED>
87.2997

>  <VAPOR_PRESSURE_MMHG_OPERA_PRED>
7.25E-06

>  <WATER_SOLUBILITY_MOL/L_OPERA_PRED>
0.00265427

>  <Shape Index>
0.625

>  <Molecular Flexibility>
0.50217

>  <Molecular Complexity>
0.60895

>  <Electronegative Atoms>
6

>  <Stereo Centers>
1

>  <Rotatable Bonds>
6

>  <Rings Closures>
1

>  <Aromatic Rings>
1

>  <Aromatic Atoms>
6

>  <Amides>
0

>  <Amines>
0

>  <Aromatic Nitrogens>
3

>  <Shape Index 2>
0.625

>  <Molecular Flexibility 2>
0.50217

>  <Molecular Complexity 2>
0.60895

>  <Non-C/H Atoms>
6

>  <Electronegative Atoms 2>
6

>  <Stereo Centers 2>
1

>  <Rotatable Bonds 2>
6

>  <Rings Closures 2>
1

>  <Aromatic Rings 2>
1

>  <Aromatic Atoms 2>
6

>  <sp3-Atoms>
8

>  <Amides 2>
0

>  <Amines 2>
0

>  <Aromatic Nitrogens 2>
3

>  <Basic Nitrogens>
0

$$$$
Terbumeton
Actelion Java MolfileCreator 2.0

  0  0  0  0  0  0              0 V3000
M  V30 BEGIN CTAB
M  V30 COUNTS 16 16 0 0 0
M  V30 BEGIN ATOM
M  V30 1 O 0.0 0.0 0.0 0
M  V30 2 C -1.3044 0.7521 0.0 0
M  V30 3 C 1.2809 0.7521 0.0 0
M  V30 4 N -1.3161 2.2563 0.0 0
M  V30 5 N -2.6088 0.0235 0.0 0
M  V30 6 C -2.6206 3.0084 0.0 0
M  V30 7 C -3.9133 0.7756 0.0 0
M  V30 8 N -3.925 2.268 0.0 0
M  V30 9 N -2.6323 4.5126 0.0 0
M  V30 10 N -5.2177 0.0352 0.0 0
M  V30 11 C -3.9368 5.2647 0.0 0
M  V30 12 C -6.5221 0.7873 0.0 0
M  V30 13 C -4.6889 3.9838 0.0 0
M  V30 14 C -5.2412 6.0168 0.0 0
M  V30 15 C -3.1964 6.5692 0.0 0
M  V30 16 C -7.8266 0.047 0.0 0
M  V30 END ATOM
M  V30 BEGIN BOND
M  V30 1 1 1 2
M  V30 2 1 1 3
M  V30 3 2 2 4
M  V30 4 1 2 5
M  V30 5 1 4 6
M  V30 6 2 5 7
M  V30 7 2 6 8
M  V30 8 1 6 9
M  V30 9 1 7 10
M  V30 10 1 9 11
M  V30 11 1 10 12
M  V30 12 1 11 13
M  V30 13 1 11 14
M  V30 14 1 11 15
M  V30 15 1 12 16
M  V30 16 1 7 8
M  V30 END BOND
M  V30 END CTAB
M  END
>  <Molecule Name>
Terbumeton

>  <Order (spectra)>
309

>  <NAME>
Terbumeton

>  <Molecular Formula>
C10H19N5O

>  <Monoisotopic Mass>
225.15896

>  <SMILES>
CCNC1=NC(OC)=NC(NC(C)(C)C)=N1

>  <InChI>
InChI=1S/C10H19N5O/c1-6-11-7-12-8(15-10(2,3)4)14-9(13-7)16-5/h6H2,1-5H3,(H2,11,12,13,14,15)

>  <InChIKey>
BCQMBFHBDZVHKU-UHFFFAOYSA-N

>  <Kingdom>
Organic compounds

>  <Superclass>
Organoheterocyclic compounds

>  <Class>
Triazines

>  <Subclass>
Aminotriazines

>  <Parent Level 1>
1,3,5-triazine-2,4-diamines

>  <Parent Level 2>


>  <Parent Level 3>


>  <cLogP>
1.8577

>  <cLogS>
-3.027

>  <Druglikeness>
0.62832

>  <NP-class probability>
0.43

>  <SmilesFragFp 3>


>  <MS_READY_SMILES>
CCNC1=NC(OC)=NC(NC(C)(C)C)=N1

>  <MS_READY_InChI>
InChI=1S/C10H19N5O/c1-6-11-7-12-8(15-10(2,3)4)14-9(13-7)16-5/h6H2,1-5H3,(H2,11,12,13,14,15)

>  <QSAR_READY_SMILES>
CCNC1=NC(OC)=NC(NC(C)(C)C)=N1

>  <QSAR_READY_InChI>
InChI=1S/C10H19N5O/c1-6-11-7-12-8(15-10(2,3)4)14-9(13-7)16-5/h6H2,1-5H3,(H2,11,12,13,14,15)

>  <DTXSID>
DTXSID1042445

>  <DTXCID>
DTXCID9022445

>  <CASRN>
33693-04-8

>  <EXPOCAST_MEDIAN_EXPOSURE_PREDICTION_MG/KG-BW/DAY>
9.78E-07

>  <BIOCONCENTRATION_FACTOR_TEST_PRED>
7.46449

>  <BOILING_POINT_DEGC_TEST_PRED>
323.634

>  <48HR_DAPHNIA_LC50_MOL/L_TEST_PRED>
6.73E-05

>  <DENSITY_G/CM^3_TEST_PRED>
1.225

>  <DEVTOX_TEST_PRED>
0.957

>  <96HR_FATHEAD_MINNOW_MOL/L_TEST_PRED>
0.000124165

>  <FLASH_POINT_DEGC_TEST_PRED>
179.183

>  <MELTING_POINT_DEGC_TEST_PRED>
122.371

>  <AMES_MUTAGENICITY_TEST_PRED>
0.274

>  <ORAL_RAT_LD50_MOL/KG_TEST_PRED>
0.00264241

>  <SURFACE_TENSION_DYN/CM_TEST_PRED>
-

>  <THERMAL_CONDUCTIVITY_MW/(M*K)_TEST_PRED>
-

>  <TETRAHYMENA_PYRIFORMIS_IGC50_MOL/L_TEST_PRED>
-

>  <VISCOSITY_CP_CP_TEST_PRED>
-

>  <VAPOR_PRESSURE_MMHG_TEST_PRED>
7.89E-07

>  <WATER_SOLUBILITY_MOL/L_TEST_PRED>
0.00383707

>  <ATMOSPHERIC_HYDROXYLATION_RATE_(AOH)_CM3/MOLECULE*SEC_OPERA_PRED>
1.55E-11

>  <BIOCONCENTRATION_FACTOR_OPERA_PRED>
6.43678

>  <BIODEGRADATION_HALF_LIFE_DAYS_DAYS_OPERA_PRED>
3.81781

>  <BOILING_POINT_DEGC_OPERA_PRED>
336.467

>  <HENRYS_LAW_ATM-M3/MOLE_OPERA_PRED>
3.00E-08

>  <OPERA_KM_DAYS_OPERA_PRED>
0.114405

>  <OCTANOL_AIR_PARTITION_COEFF_LOGKOA_OPERA_PRED>
8.41762

>  <SOIL_ADSORPTION_COEFFICIENT_KOC_L/KG_OPERA_PRED>
383.307

>  <OCTANOL_WATER_PARTITION_LOGP_OPERA_PRED>
3.09994

>  <MELTING_POINT_DEGC_OPERA_PRED>
123.358

>  <VAPOR_PRESSURE_MMHG_OPERA_PRED>
2.01E-06

>  <WATER_SOLUBILITY_MOL/L_OPERA_PRED>
0.000611829

>  <Shape Index>
0.5625

>  <Molecular Flexibility>
0.55984

>  <Molecular Complexity>
0.59634

>  <Electronegative Atoms>
6

>  <Stereo Centers>
0

>  <Rotatable Bonds>
5

>  <Rings Closures>
1

>  <Aromatic Rings>
1

>  <Aromatic Atoms>
6

>  <Amides>
0

>  <Amines>
0

>  <Aromatic Nitrogens>
3

>  <Shape Index 2>
0.5625

>  <Molecular Flexibility 2>
0.55984

>  <Molecular Complexity 2>
0.59634

>  <Non-C/H Atoms>
6

>  <Electronegative Atoms 2>
6

>  <Stereo Centers 2>
0

>  <Rotatable Bonds 2>
5

>  <Rings Closures 2>
1

>  <Aromatic Rings 2>
1

>  <Aromatic Atoms 2>
6

>  <sp3-Atoms>
8

>  <Amides 2>
0

>  <Amines 2>
0

>  <Aromatic Nitrogens 2>
3

>  <Basic Nitrogens>
0

$$$$
Methoprotryne
Actelion Java MolfileCreator 2.0

  0  0  0  0  0  0              0 V3000
M  V30 BEGIN CTAB
M  V30 COUNTS 18 18 0 0 0
M  V30 BEGIN ATOM
M  V30 1 S 0.0 0.0 0.0 0
M  V30 2 C -0.0117 1.5085 0.0 0
M  V30 3 C 1.2846 -0.7424 0.0 0
M  V30 4 N 1.2728 2.2628 0.0 0
M  V30 5 N -1.3199 2.2746 0.0 0
M  V30 6 C 1.261 3.7713 0.0 0
M  V30 7 C -1.3317 3.7831 0.0 0
M  V30 8 N -0.0471 4.5256 0.0 0
M  V30 9 N 2.5456 4.5256 0.0 0
M  V30 10 N -2.6399 4.5374 0.0 0
M  V30 11 C 3.8302 3.7831 0.0 0
M  V30 12 C -3.9481 3.7949 0.0 0
M  V30 13 C 3.8185 2.2981 0.0 0
M  V30 14 C 5.1149 4.5374 0.0 0
M  V30 15 C -5.2563 4.5492 0.0 0
M  V30 16 C -6.5645 3.8067 0.0 0
M  V30 17 O -7.8727 4.5609 0.0 0
M  V30 18 C -9.1809 3.8185 0.0 0
M  V30 END ATOM
M  V30 BEGIN BOND
M  V30 1 1 1 2
M  V30 2 1 1 3
M  V30 3 2 2 4
M  V30 4 1 2 5
M  V30 5 1 4 6
M  V30 6 2 5 7
M  V30 7 2 6 8
M  V30 8 1 6 9
M  V30 9 1 7 10
M  V30 10 1 9 11
M  V30 11 1 10 12
M  V30 12 1 11 13
M  V30 13 1 11 14
M  V30 14 1 12 15
M  V30 15 1 15 16
M  V30 16 1 16 17
M  V30 17 1 17 18
M  V30 18 1 7 8
M  V30 END BOND
M  V30 END CTAB
M  END
>  <Molecule Name>
Methoprotryne

>  <Order (spectra)>
321

>  <NAME>
Methoprotryne

>  <Molecular Formula>
C11H21N5OS

>  <Monoisotopic Mass>
271.14668

>  <SMILES>
COCCCNC1=NC(NC(C)C)=NC(SC)=N1

>  <InChI>
InChI=1S/C11H21N5OS/c1-8(2)13-10-14-9(12-6-5-7-17-3)15-11(16-10)18-4/h8H,5-7H2,1-4H3,(H2,12,13,14,15,16)

>  <InChIKey>
DDUIUBPJPOKOMV-UHFFFAOYSA-N

>  <Kingdom>
Organic compounds

>  <Superclass>
Organoheterocyclic compounds

>  <Class>
Triazines

>  <Subclass>
1,3,5-triazines

>  <Parent Level 1>
Methylthio-s-triazines

>  <Parent Level 2>


>  <Parent Level 3>


>  <cLogP>
1.8525

>  <cLogS>
-3.137

>  <Druglikeness>
1.3125

>  <NP-class probability>
0.02

>  <SmilesFragFp 3>


>  <MS_READY_SMILES>
COCCCNC1=NC(NC(C)C)=NC(SC)=N1

>  <MS_READY_InChI>
InChI=1S/C11H21N5OS/c1-8(2)13-10-14-9(12-6-5-7-17-3)15-11(16-10)18-4/h8H,5-7H2,1-4H3,(H2,12,13,14,15,16)

>  <QSAR_READY_SMILES>
COCCCNC1=NC(NC(C)C)=NC(SC)=N1

>  <QSAR_READY_InChI>
InChI=1S/C11H21N5OS/c1-8(2)13-10-14-9(12-6-5-7-17-3)15-11(16-10)18-4/h8H,5-7H2,1-4H3,(H2,12,13,14,15,16)

>  <DTXSID>
DTXSID2040286

>  <DTXCID>
DTXCID0020286

>  <CASRN>
841-06-5

>  <EXPOCAST_MEDIAN_EXPOSURE_PREDICTION_MG/KG-BW/DAY>
5.76E-07

>  <BIOCONCENTRATION_FACTOR_TEST_PRED>
5.45758

>  <BOILING_POINT_DEGC_TEST_PRED>
-

>  <48HR_DAPHNIA_LC50_MOL/L_TEST_PRED>
9.08E-05

>  <DENSITY_G/CM^3_TEST_PRED>
1.17

>  <DEVTOX_TEST_PRED>
0.594

>  <96HR_FATHEAD_MINNOW_MOL/L_TEST_PRED>
0.000107399

>  <FLASH_POINT_DEGC_TEST_PRED>
199.106

>  <MELTING_POINT_DEGC_TEST_PRED>
72.44

>  <AMES_MUTAGENICITY_TEST_PRED>
0.555

>  <ORAL_RAT_LD50_MOL/KG_TEST_PRED>
0.00548277

>  <SURFACE_TENSION_DYN/CM_TEST_PRED>
-

>  <THERMAL_CONDUCTIVITY_MW/(M*K)_TEST_PRED>
-

>  <TETRAHYMENA_PYRIFORMIS_IGC50_MOL/L_TEST_PRED>
-

>  <VISCOSITY_CP_CP_TEST_PRED>
-

>  <VAPOR_PRESSURE_MMHG_TEST_PRED>
2.48E-07

>  <WATER_SOLUBILITY_MOL/L_TEST_PRED>
0.000845279

>  <ATMOSPHERIC_HYDROXYLATION_RATE_(AOH)_CM3/MOLECULE*SEC_OPERA_PRED>
1.64E-11

>  <BIOCONCENTRATION_FACTOR_OPERA_PRED>
7.72357

>  <BIODEGRADATION_HALF_LIFE_DAYS_DAYS_OPERA_PRED>
4.88787

>  <BOILING_POINT_DEGC_OPERA_PRED>
332.354

>  <HENRYS_LAW_ATM-M3/MOLE_OPERA_PRED>
2.77E-09

>  <OPERA_KM_DAYS_OPERA_PRED>
0.177564

>  <OCTANOL_AIR_PARTITION_COEFF_LOGKOA_OPERA_PRED>
9.26105

>  <SOIL_ADSORPTION_COEFFICIENT_KOC_L/KG_OPERA_PRED>
524.635

>  <OCTANOL_WATER_PARTITION_LOGP_OPERA_PRED>
2.81769

>  <MELTING_POINT_DEGC_OPERA_PRED>
93.4855

>  <VAPOR_PRESSURE_MMHG_OPERA_PRED>
2.86E-07

>  <WATER_SOLUBILITY_MOL/L_OPERA_PRED>
0.0011665

>  <Shape Index>
0.66667

>  <Molecular Flexibility>
0.5695

>  <Molecular Complexity>
0.61292

>  <Electronegative Atoms>
7

>  <Stereo Centers>
0

>  <Rotatable Bonds>
8

>  <Rings Closures>
1

>  <Aromatic Rings>
1

>  <Aromatic Atoms>
6

>  <Amides>
0

>  <Amines>
0

>  <Aromatic Nitrogens>
3

>  <Shape Index 2>
0.66667

>  <Molecular Flexibility 2>
0.5695

>  <Molecular Complexity 2>
0.61292

>  <Non-C/H Atoms>
7

>  <Electronegative Atoms 2>
7

>  <Stereo Centers 2>
0

>  <Rotatable Bonds 2>
8

>  <Rings Closures 2>
1

>  <Aromatic Rings 2>
1

>  <Aromatic Atoms 2>
6

>  <sp3-Atoms>
10

>  <Amides 2>
0

>  <Amines 2>
0

>  <Aromatic Nitrogens 2>
3

>  <Basic Nitrogens>
0

$$$$
Prometryn
Actelion Java MolfileCreator 2.0

  0  0  0  0  0  0              0 V3000
M  V30 BEGIN CTAB
M  V30 COUNTS 16 16 0 0 0
M  V30 BEGIN ATOM
M  V30 1 S 0.0 0.0 0.0 0
M  V30 2 C -0.0118 -1.4903 0.0 0
M  V30 3 C -1.3129 0.757 0.0 0
M  V30 4 N -1.3247 -2.2355 0.0 0
M  V30 5 N 1.2774 -2.2355 0.0 0
M  V30 6 C -1.3365 -3.7259 0.0 0
M  V30 7 C 1.2656 -3.7259 0.0 0
M  V30 8 N -0.0473 -4.4592 0.0 0
M  V30 9 N -2.6495 -4.471 0.0 0
M  V30 10 N 2.5549 -4.471 0.0 0
M  V30 11 C -3.9624 -3.714 0.0 0
M  V30 12 C 2.543 -5.9614 0.0 0
M  V30 13 C -3.9742 -2.2 0.0 0
M  V30 14 C -5.2754 -4.4592 0.0 0
M  V30 15 C 1.2301 -6.7066 0.0 0
M  V30 16 C 3.8323 -6.7066 0.0 0
M  V30 END ATOM
M  V30 BEGIN BOND
M  V30 1 1 1 2
M  V30 2 1 1 3
M  V30 3 2 2 4
M  V30 4 1 2 5
M  V30 5 1 4 6
M  V30 6 2 5 7
M  V30 7 2 6 8
M  V30 8 1 6 9
M  V30 9 1 7 10
M  V30 10 1 9 11
M  V30 11 1 10 12
M  V30 12 1 11 13
M  V30 13 1 11 14
M  V30 14 1 12 15
M  V30 15 1 12 16
M  V30 16 1 7 8
M  V30 END BOND
M  V30 END CTAB
M  END
>  <Molecule Name>
Prometryn

>  <Order (spectra)>
323

>  <NAME>
Prometryn

>  <Molecular Formula>
C10H19N5S

>  <Monoisotopic Mass>
241.136115

>  <SMILES>
CSC1=NC(NC(C)C)=NC(NC(C)C)=N1

>  <InChI>
InChI=1S/C10H19N5S/c1-6(2)11-8-13-9(12-7(3)4)15-10(14-8)16-5/h6-7H,1-5H3,(H2,11,12,13,14,15)

>  <InChIKey>
AAEVYOVXGOFMJO-UHFFFAOYSA-N

>  <Kingdom>
Organic compounds

>  <Superclass>
Organoheterocyclic compounds

>  <Class>
Triazines

>  <Subclass>
1,3,5-triazines

>  <Parent Level 1>
Methylthio-s-triazines

>  <Parent Level 2>


>  <Parent Level 3>


>  <cLogP>
2.2562

>  <cLogS>
-3.624

>  <Druglikeness>
0.92514

>  <NP-class probability>
0.05

>  <SmilesFragFp 3>


>  <MS_READY_SMILES>
CSC1=NC(NC(C)C)=NC(NC(C)C)=N1

>  <MS_READY_InChI>
InChI=1S/C10H19N5S/c1-6(2)11-8-13-9(12-7(3)4)15-10(14-8)16-5/h6-7H,1-5H3,(H2,11,12,13,14,15)

>  <QSAR_READY_SMILES>
CSC1=NC(NC(C)C)=NC(NC(C)C)=N1

>  <QSAR_READY_InChI>
InChI=1S/C10H19N5S/c1-6(2)11-8-13-9(12-7(3)4)15-10(14-8)16-5/h6-7H,1-5H3,(H2,11,12,13,14,15)

>  <DTXSID>
DTXSID4024272

>  <DTXCID>
DTXCID704272

>  <CASRN>
7287-19-6

>  <EXPOCAST_MEDIAN_EXPOSURE_PREDICTION_MG/KG-BW/DAY>
2.91E-06

>  <BIOCONCENTRATION_FACTOR_TEST_PRED>
9.35406

>  <BOILING_POINT_DEGC_TEST_PRED>
-

>  <48HR_DAPHNIA_LC50_MOL/L_TEST_PRED>
4.86E-05

>  <DENSITY_G/CM^3_TEST_PRED>
1.165

>  <DEVTOX_TEST_PRED>
0.57

>  <96HR_FATHEAD_MINNOW_MOL/L_TEST_PRED>
4.10E-05

>  <FLASH_POINT_DEGC_TEST_PRED>
186.492

>  <MELTING_POINT_DEGC_TEST_PRED>
90.639

>  <AMES_MUTAGENICITY_TEST_PRED>
0.177

>  <ORAL_RAT_LD50_MOL/KG_TEST_PRED>
0.00758578

>  <SURFACE_TENSION_DYN/CM_TEST_PRED>
-

>  <THERMAL_CONDUCTIVITY_MW/(M*K)_TEST_PRED>
-

>  <TETRAHYMENA_PYRIFORMIS_IGC50_MOL/L_TEST_PRED>
-

>  <VISCOSITY_CP_CP_TEST_PRED>
-

>  <VAPOR_PRESSURE_MMHG_TEST_PRED>
9.59E-07

>  <WATER_SOLUBILITY_MOL/L_TEST_PRED>
0.000322849

>  <ATMOSPHERIC_HYDROXYLATION_RATE_(AOH)_CM3/MOLECULE*SEC_OPERA_PRED>
1.54E-11

>  <BIOCONCENTRATION_FACTOR_OPERA_PRED>
12.3274

>  <BIODEGRADATION_HALF_LIFE_DAYS_DAYS_OPERA_PRED>
4.74669

>  <BOILING_POINT_DEGC_OPERA_PRED>
338.851

>  <HENRYS_LAW_ATM-M3/MOLE_OPERA_PRED>
2.31E-08

>  <OPERA_KM_DAYS_OPERA_PRED>
0.144942

>  <OCTANOL_AIR_PARTITION_COEFF_LOGKOA_OPERA_PRED>
9.11123

>  <SOIL_ADSORPTION_COEFFICIENT_KOC_L/KG_OPERA_PRED>
707.421

>  <OCTANOL_WATER_PARTITION_LOGP_OPERA_PRED>
3.51124

>  <MELTING_POINT_DEGC_OPERA_PRED>
118.767

>  <VAPOR_PRESSURE_MMHG_OPERA_PRED>
1.24E-06

>  <WATER_SOLUBILITY_MOL/L_OPERA_PRED>
0.000110677

>  <Shape Index>
0.5625

>  <Molecular Flexibility>
0.46405

>  <Molecular Complexity>
0.59413

>  <Electronegative Atoms>
6

>  <Stereo Centers>
0

>  <Rotatable Bonds>
5

>  <Rings Closures>
1

>  <Aromatic Rings>
1

>  <Aromatic Atoms>
6

>  <Amides>
0

>  <Amines>
0

>  <Aromatic Nitrogens>
3

>  <Shape Index 2>
0.5625

>  <Molecular Flexibility 2>
0.46405

>  <Molecular Complexity 2>
0.59413

>  <Non-C/H Atoms>
6

>  <Electronegative Atoms 2>
6

>  <Stereo Centers 2>
0

>  <Rotatable Bonds 2>
5

>  <Rings Closures 2>
1

>  <Aromatic Rings 2>
1

>  <Aromatic Atoms 2>
6

>  <sp3-Atoms>
8

>  <Amides 2>
0

>  <Amines 2>
0

>  <Aromatic Nitrogens 2>
3

>  <Basic Nitrogens>
0

$$$$
Simetryn
Actelion Java MolfileCreator 2.0

  0  0  0  0  0  0              0 V3000
M  V30 BEGIN CTAB
M  V30 COUNTS 14 14 0 0 0
M  V30 BEGIN ATOM
M  V30 1 S 0.0 0.0 0.0 0
M  V30 2 C -0.0118 -1.492 0.0 0
M  V30 3 C -1.3144 0.7578 0.0 0
M  V30 4 N -1.3262 -2.238 0.0 0
M  V30 5 N 1.2788 -2.238 0.0 0
M  V30 6 C -1.3381 -3.7301 0.0 0
M  V30 7 C 1.267 -3.7301 0.0 0
M  V30 8 N -0.0473 -4.4643 0.0 0
M  V30 9 N -2.6525 -4.4761 0.0 0
M  V30 10 N 2.5577 -4.4761 0.0 0
M  V30 11 C -3.9669 -3.7182 0.0 0
M  V30 12 C 2.5459 -5.9681 0.0 0
M  V30 13 C -5.2813 -4.4643 0.0 0
M  V30 14 C 3.8366 -6.7142 0.0 0
M  V30 END ATOM
M  V30 BEGIN BOND
M  V30 1 1 1 2
M  V30 2 1 1 3
M  V30 3 2 2 4
M  V30 4 1 2 5
M  V30 5 1 4 6
M  V30 6 2 5 7
M  V30 7 2 6 8
M  V30 8 1 6 9
M  V30 9 1 7 10
M  V30 10 1 9 11
M  V30 11 1 10 12
M  V30 12 1 11 13
M  V30 13 1 12 14
M  V30 14 1 7 8
M  V30 END BOND
M  V30 END CTAB
M  END
>  <Molecule Name>
Simetryn

>  <Order (spectra)>
331

>  <NAME>
Simetryn

>  <Molecular Formula>
C8H15N5S

>  <Monoisotopic Mass>
213.104815

>  <SMILES>
CCNC1=NC(SC)=NC(NCC)=N1

>  <InChI>
InChI=1S/C8H15N5S/c1-4-9-6-11-7(10-5-2)13-8(12-6)14-3/h4-5H2,1-3H3,(H2,9,10,11,12,13)

>  <InChIKey>
MGLWZSOBALDPEK-UHFFFAOYSA-N

>  <Kingdom>
Organic compounds

>  <Superclass>
Organoheterocyclic compounds

>  <Class>
Triazines

>  <Subclass>
1,3,5-triazines

>  <Parent Level 1>
Methylthio-s-triazines

>  <Parent Level 2>


>  <Parent Level 3>


>  <cLogP>
1.5376

>  <cLogS>
-2.868

>  <Druglikeness>
-0.10412

>  <NP-class probability>
0.05

>  <SmilesFragFp 3>


>  <MS_READY_SMILES>
CCNC1=NC(SC)=NC(NCC)=N1

>  <MS_READY_InChI>
InChI=1S/C8H15N5S/c1-4-9-6-11-7(10-5-2)13-8(12-6)14-3/h4-5H2,1-3H3,(H2,9,10,11,12,13)

>  <QSAR_READY_SMILES>
CCNC1=NC(SC)=NC(NCC)=N1

>  <QSAR_READY_InChI>
InChI=1S/C8H15N5S/c1-4-9-6-11-7(10-5-2)13-8(12-6)14-3/h4-5H2,1-3H3,(H2,9,10,11,12,13)

>  <DTXSID>
DTXSID8037596

>  <DTXCID>
DTXCID6017596

>  <CASRN>
1014-70-6

>  <EXPOCAST_MEDIAN_EXPOSURE_PREDICTION_MG/KG-BW/DAY>
4.00E-06

>  <BIOCONCENTRATION_FACTOR_TEST_PRED>
4.65586

>  <BOILING_POINT_DEGC_TEST_PRED>
326.414

>  <48HR_DAPHNIA_LC50_MOL/L_TEST_PRED>
0.000132434

>  <DENSITY_G/CM^3_TEST_PRED>
1.193

>  <DEVTOX_TEST_PRED>
0.566

>  <96HR_FATHEAD_MINNOW_MOL/L_TEST_PRED>
9.84E-05

>  <FLASH_POINT_DEGC_TEST_PRED>
186.804

>  <MELTING_POINT_DEGC_TEST_PRED>
94.639

>  <AMES_MUTAGENICITY_TEST_PRED>
0.176

>  <ORAL_RAT_LD50_MOL/KG_TEST_PRED>
0.00578096

>  <SURFACE_TENSION_DYN/CM_TEST_PRED>
-

>  <THERMAL_CONDUCTIVITY_MW/(M*K)_TEST_PRED>
-

>  <TETRAHYMENA_PYRIFORMIS_IGC50_MOL/L_TEST_PRED>
-

>  <VISCOSITY_CP_CP_TEST_PRED>
-

>  <VAPOR_PRESSURE_MMHG_TEST_PRED>
7.73E-07

>  <WATER_SOLUBILITY_MOL/L_TEST_PRED>
0.00180302

>  <ATMOSPHERIC_HYDROXYLATION_RATE_(AOH)_CM3/MOLECULE*SEC_OPERA_PRED>
1.79E-11

>  <BIOCONCENTRATION_FACTOR_OPERA_PRED>
4.56322

>  <BIODEGRADATION_HALF_LIFE_DAYS_DAYS_OPERA_PRED>
3.35858

>  <BOILING_POINT_DEGC_OPERA_PRED>
341.507

>  <HENRYS_LAW_ATM-M3/MOLE_OPERA_PRED>
1.84E-08

>  <OPERA_KM_DAYS_OPERA_PRED>
0.134104

>  <OCTANOL_AIR_PARTITION_COEFF_LOGKOA_OPERA_PRED>
9.02266

>  <SOIL_ADSORPTION_COEFFICIENT_KOC_L/KG_OPERA_PRED>
199.694

>  <OCTANOL_WATER_PARTITION_LOGP_OPERA_PRED>
2.79824

>  <MELTING_POINT_DEGC_OPERA_PRED>
96.0954

>  <VAPOR_PRESSURE_MMHG_OPERA_PRED>
1.60E-06

>  <WATER_SOLUBILITY_MOL/L_OPERA_PRED>
0.00208608

>  <Shape Index>
0.64286

>  <Molecular Flexibility>
0.49945

>  <Molecular Complexity>
0.57505

>  <Electronegative Atoms>
6

>  <Stereo Centers>
0

>  <Rotatable Bonds>
5

>  <Rings Closures>
1

>  <Aromatic Rings>
1

>  <Aromatic Atoms>
6

>  <Amides>
0

>  <Amines>
0

>  <Aromatic Nitrogens>
3

>  <Shape Index 2>
0.64286

>  <Molecular Flexibility 2>
0.49945

>  <Molecular Complexity 2>
0.57505

>  <Non-C/H Atoms>
6

>  <Electronegative Atoms 2>
6

>  <Stereo Centers 2>
0

>  <Rotatable Bonds 2>
5

>  <Rings Closures 2>
1

>  <Aromatic Rings 2>
1

>  <Aromatic Atoms 2>
6

>  <sp3-Atoms>
6

>  <Amides 2>
0

>  <Amines 2>
0

>  <Aromatic Nitrogens 2>
3

>  <Basic Nitrogens>
0

$$$$
Terbutryn
Actelion Java MolfileCreator 2.0

  0  0  0  0  0  0              0 V3000
M  V30 BEGIN CTAB
M  V30 COUNTS 16 16 0 0 0
M  V30 BEGIN ATOM
M  V30 1 S 0.0 0.0 0.0 0
M  V30 2 C -1.3044 0.7521 0.0 0
M  V30 3 C 1.2809 0.7521 0.0 0
M  V30 4 N -1.3161 2.2563 0.0 0
M  V30 5 N -2.6088 0.0235 0.0 0
M  V30 6 C -2.6206 3.0084 0.0 0
M  V30 7 C -3.9133 0.7756 0.0 0
M  V30 8 N -3.925 2.268 0.0 0
M  V30 9 N -2.6323 4.5126 0.0 0
M  V30 10 N -5.2177 0.0352 0.0 0
M  V30 11 C -3.9368 5.2647 0.0 0
M  V30 12 C -6.5221 0.7873 0.0 0
M  V30 13 C -4.6889 3.9838 0.0 0
M  V30 14 C -5.2412 6.0168 0.0 0
M  V30 15 C -3.1964 6.5692 0.0 0
M  V30 16 C -7.8266 0.047 0.0 0
M  V30 END ATOM
M  V30 BEGIN BOND
M  V30 1 1 1 2
M  V30 2 1 1 3
M  V30 3 2 2 4
M  V30 4 1 2 5
M  V30 5 1 4 6
M  V30 6 2 5 7
M  V30 7 2 6 8
M  V30 8 1 6 9
M  V30 9 1 7 10
M  V30 10 1 9 11
M  V30 11 1 10 12
M  V30 12 1 11 13
M  V30 13 1 11 14
M  V30 14 1 11 15
M  V30 15 1 12 16
M  V30 16 1 7 8
M  V30 END BOND
M  V30 END CTAB
M  END
>  <Molecule Name>
Terbutryn

>  <Order (spectra)>
333

>  <NAME>
Terbutryn

>  <Molecular Formula>
C10H19N5S

>  <Monoisotopic Mass>
241.136115

>  <SMILES>
CCNC1=NC(SC)=NC(NC(C)(C)C)=N1

>  <InChI>
InChI=1S/C10H19N5S/c1-6-11-7-12-8(15-10(2,3)4)14-9(13-7)16-5/h6H2,1-5H3,(H2,11,12,13,14,15)

>  <InChIKey>
IROINLKCQGIITA-UHFFFAOYSA-N

>  <Kingdom>
Organic compounds

>  <Superclass>
Organoheterocyclic compounds

>  <Class>
Triazines

>  <Subclass>
1,3,5-triazines

>  <Parent Level 1>
Methylthio-s-triazines

>  <Parent Level 2>


>  <Parent Level 3>


>  <cLogP>
2.2775

>  <cLogS>
-3.355

>  <Druglikeness>
0.8646

>  <NP-class probability>
0.06

>  <SmilesFragFp 3>


>  <MS_READY_SMILES>
CCNC1=NC(SC)=NC(NC(C)(C)C)=N1

>  <MS_READY_InChI>
InChI=1S/C10H19N5S/c1-6-11-7-12-8(15-10(2,3)4)14-9(13-7)16-5/h6H2,1-5H3,(H2,11,12,13,14,15)

>  <QSAR_READY_SMILES>
CCNC1=NC(SC)=NC(NC(C)(C)C)=N1

>  <QSAR_READY_InChI>
InChI=1S/C10H19N5S/c1-6-11-7-12-8(15-10(2,3)4)14-9(13-7)16-5/h6H2,1-5H3,(H2,11,12,13,14,15)

>  <DTXSID>
DTXSID3024318

>  <DTXCID>
DTXCID504318

>  <CASRN>
886-50-0

>  <EXPOCAST_MEDIAN_EXPOSURE_PREDICTION_MG/KG-BW/DAY>
3.72E-06

>  <BIOCONCENTRATION_FACTOR_TEST_PRED>
10

>  <BOILING_POINT_DEGC_TEST_PRED>
-

>  <48HR_DAPHNIA_LC50_MOL/L_TEST_PRED>
4.00E-05

>  <DENSITY_G/CM^3_TEST_PRED>
1.228

>  <DEVTOX_TEST_PRED>
0.72

>  <96HR_FATHEAD_MINNOW_MOL/L_TEST_PRED>
6.44E-05

>  <FLASH_POINT_DEGC_TEST_PRED>
187.098

>  <MELTING_POINT_DEGC_TEST_PRED>
95.512

>  <AMES_MUTAGENICITY_TEST_PRED>
0.408

>  <ORAL_RAT_LD50_MOL/KG_TEST_PRED>
0.00762079

>  <SURFACE_TENSION_DYN/CM_TEST_PRED>
-

>  <THERMAL_CONDUCTIVITY_MW/(M*K)_TEST_PRED>
-

>  <TETRAHYMENA_PYRIFORMIS_IGC50_MOL/L_TEST_PRED>
-

>  <VISCOSITY_CP_CP_TEST_PRED>
-

>  <VAPOR_PRESSURE_MMHG_TEST_PRED>
8.57E-07

>  <WATER_SOLUBILITY_MOL/L_TEST_PRED>
0.000338065

>  <ATMOSPHERIC_HYDROXYLATION_RATE_(AOH)_CM3/MOLECULE*SEC_OPERA_PRED>
1.56E-11

>  <BIOCONCENTRATION_FACTOR_OPERA_PRED>
14.4783

>  <BIODEGRADATION_HALF_LIFE_DAYS_DAYS_OPERA_PRED>
3.36382

>  <BOILING_POINT_DEGC_OPERA_PRED>
338.78

>  <HENRYS_LAW_ATM-M3/MOLE_OPERA_PRED>
2.32E-08

>  <OPERA_KM_DAYS_OPERA_PRED>
0.144713

>  <OCTANOL_AIR_PARTITION_COEFF_LOGKOA_OPERA_PRED>
9.11799

>  <SOIL_ADSORPTION_COEFFICIENT_KOC_L/KG_OPERA_PRED>
707.383

>  <OCTANOL_WATER_PARTITION_LOGP_OPERA_PRED>
3.5607

>  <MELTING_POINT_DEGC_OPERA_PRED>
103.884

>  <VAPOR_PRESSURE_MMHG_OPERA_PRED>
1.69E-06

>  <WATER_SOLUBILITY_MOL/L_OPERA_PRED>
0.000103316

>  <Shape Index>
0.5625

>  <Molecular Flexibility>
0.55984

>  <Molecular Complexity>
0.59634

>  <Electronegative Atoms>
6

>  <Stereo Centers>
0

>  <Rotatable Bonds>
5

>  <Rings Closures>
1

>  <Aromatic Rings>
1

>  <Aromatic Atoms>
6

>  <Amides>
0

>  <Amines>
0

>  <Aromatic Nitrogens>
3

>  <Shape Index 2>
0.5625

>  <Molecular Flexibility 2>
0.55984

>  <Molecular Complexity 2>
0.59634

>  <Non-C/H Atoms>
6

>  <Electronegative Atoms 2>
6

>  <Stereo Centers 2>
0

>  <Rotatable Bonds 2>
5

>  <Rings Closures 2>
1

>  <Aromatic Rings 2>
1

>  <Aromatic Atoms 2>
6

>  <sp3-Atoms>
8

>  <Amides 2>
0

>  <Amines 2>
0

>  <Aromatic Nitrogens 2>
3

>  <Basic Nitrogens>
0

$$$$
syn-Dechlorane plus
Actelion Java MolfileCreator 2.0

  0  0  0  0  0  0              0 V3000
M  V30 BEGIN CTAB
M  V30 COUNTS 30 34 0 0 0
M  V30 BEGIN ATOM
M  V30 1 Cl 0.0 0.0 0.0 0
M  V30 2 C 1.0801 0.834 0.0 0
M  V30 3 C 2.7619 0.0957 0.0 0
M  V30 4 C 1.5997 2.5841 0.0 0
M  V30 5 Cl 2.8713 -1.2579 0.0 0
M  V30 6 C 3.678 1.668 0.0 0
M  V30 7 Cl 0.3281 3.2268 0.0 0
M  V30 8 C 2.297 1.3809 0.0 0
M  V30 9 C 2.5294 3.6506 0.0 0 CFG=2
M  V30 10 Cl 4.9769 1.1621 0.0 0
M  V30 11 C 3.8147 3.09 0.0 0 CFG=1
M  V30 12 Cl 1.1075 0.3008 0.0 0
M  V30 13 Cl 2.256 -0.205 0.0 0
M  V30 14 C 2.0099 4.9769 0.0 0
M  V30 15 C 5.1136 3.6096 0.0 0
M  V30 16 C 2.5705 6.2758 0.0 0
M  V30 17 C 5.6742 4.9085 0.0 0
M  V30 18 C 3.719 6.9731 0.0 0 CFG=2
M  V30 19 C 5.4007 6.2348 0.0 0 CFG=1
M  V30 20 C 4.2386 8.7233 0.0 0
M  V30 21 C 6.3168 7.8072 0.0 0
M  V30 22 Cl 2.967 9.3659 0.0 0
M  V30 23 C 5.1683 9.7898 0.0 0
M  V30 24 C 4.9359 7.5201 0.0 0
M  V30 25 Cl 7.6158 7.3013 0.0 0
M  V30 26 C 6.4536 9.2292 0.0 0
M  V30 27 Cl 4.8675 11.1844 0.0 0
M  V30 28 Cl 3.7463 6.4399 0.0 0
M  V30 29 Cl 4.9085 5.9203 0.0 0
M  V30 30 Cl 7.6568 9.9538 0.0 0
M  V30 END ATOM
M  V30 BEGIN BOND
M  V30 1 1 1 2
M  V30 2 2 2 3
M  V30 3 1 2 4
M  V30 4 1 3 5
M  V30 5 1 3 6
M  V30 6 1 4 7
M  V30 7 1 4 8
M  V30 8 1 4 9
M  V30 9 1 6 10
M  V30 10 1 6 11
M  V30 11 1 8 12
M  V30 12 1 8 13
M  V30 13 1 9 14 CFG=1
M  V30 14 1 11 15 CFG=1
M  V30 15 1 14 16
M  V30 16 1 15 17
M  V30 17 1 18 16 CFG=1
M  V30 18 1 19 17 CFG=1
M  V30 19 1 18 20
M  V30 20 1 19 21
M  V30 21 1 20 22
M  V30 22 1 20 23
M  V30 23 1 20 24
M  V30 24 1 21 25
M  V30 25 1 21 26
M  V30 26 1 23 27
M  V30 27 1 24 28
M  V30 28 1 24 29
M  V30 29 1 26 30
M  V30 30 1 6 8
M  V30 31 1 9 11
M  V30 32 1 18 19
M  V30 33 1 21 24
M  V30 34 2 23 26
M  V30 END BOND
M  V30 BEGIN COLLECTION
M  V30 MDLV30/STEABS ATOMS=(4 9 11 18 19)
M  V30 END COLLECTION
M  V30 END CTAB
M  END
>  <Molecule Name>
syn-Dechlorane plus

>  <Order (spectra)>
121

>  <NAME>
syn-Dechlorane plus

>  <Molecular Formula>
C18H12Cl12

>  <Monoisotopic Mass>
647.720124

>  <SMILES>
C1C[C@H]2[C@@H](CC[C@H]3[C@@H]1C4(C(=C(C3(C4(Cl)Cl)Cl)Cl)Cl)Cl)C5(C(=C(C2(C5(Cl)Cl)Cl)Cl)Cl)Cl

>  <InChI>
InChI=1S/C18H12Cl12/c19-9-10(20)15(25)7-3-4-8-6(2-1-5(7)13(9,23)17(15,27)28)14(24)11(21)12(22)16(8,26)18(14,29)30/h5-8H,1-4H2/t5-,6+,7+,8-,13?,14?,15?,16?

>  <InChIKey>
UGQQAJOWXNCOPY-HYXMNYRASA-N

>  <Kingdom>
Organic compounds

>  <Superclass>
Organohalogen compounds

>  <Class>
Vinyl halides

>  <Subclass>
Vinyl chlorides

>  <Parent Level 1>
Vinyl chlorides

>  <Parent Level 2>


>  <Parent Level 3>


>  <cLogP>
9.9698

>  <cLogS>
-10.318

>  <Druglikeness>
-1.5445

>  <NP-class probability>
0.27

>  <SmilesFragFp 3>


>  <MS_READY_SMILES>
-

>  <MS_READY_InChI>


>  <QSAR_READY_SMILES>
-

>  <QSAR_READY_InChI>


>  <DTXSID>
-

>  <DTXCID>
-

>  <CASRN>
-

>  <EXPOCAST_MEDIAN_EXPOSURE_PREDICTION_MG/KG-BW/DAY>
-

>  <BIOCONCENTRATION_FACTOR_TEST_PRED>
-

>  <BOILING_POINT_DEGC_TEST_PRED>
-

>  <48HR_DAPHNIA_LC50_MOL/L_TEST_PRED>
-

>  <DENSITY_G/CM^3_TEST_PRED>
-

>  <DEVTOX_TEST_PRED>
-

>  <96HR_FATHEAD_MINNOW_MOL/L_TEST_PRED>
-

>  <FLASH_POINT_DEGC_TEST_PRED>
-

>  <MELTING_POINT_DEGC_TEST_PRED>
-

>  <AMES_MUTAGENICITY_TEST_PRED>
-

>  <ORAL_RAT_LD50_MOL/KG_TEST_PRED>
-

>  <SURFACE_TENSION_DYN/CM_TEST_PRED>
-

>  <THERMAL_CONDUCTIVITY_MW/(M*K)_TEST_PRED>
-

>  <TETRAHYMENA_PYRIFORMIS_IGC50_MOL/L_TEST_PRED>
-

>  <VISCOSITY_CP_CP_TEST_PRED>
-

>  <VAPOR_PRESSURE_MMHG_TEST_PRED>
-

>  <WATER_SOLUBILITY_MOL/L_TEST_PRED>
-

>  <ATMOSPHERIC_HYDROXYLATION_RATE_(AOH)_CM3/MOLECULE*SEC_OPERA_PRED>
-

>  <BIOCONCENTRATION_FACTOR_OPERA_PRED>
-

>  <BIODEGRADATION_HALF_LIFE_DAYS_DAYS_OPERA_PRED>
-

>  <BOILING_POINT_DEGC_OPERA_PRED>
-

>  <HENRYS_LAW_ATM-M3/MOLE_OPERA_PRED>
-

>  <OPERA_KM_DAYS_OPERA_PRED>
-

>  <OCTANOL_AIR_PARTITION_COEFF_LOGKOA_OPERA_PRED>
-

>  <SOIL_ADSORPTION_COEFFICIENT_KOC_L/KG_OPERA_PRED>
-

>  <OCTANOL_WATER_PARTITION_LOGP_OPERA_PRED>
-

>  <MELTING_POINT_DEGC_OPERA_PRED>
-

>  <VAPOR_PRESSURE_MMHG_OPERA_PRED>
-

>  <WATER_SOLUBILITY_MOL/L_OPERA_PRED>
-

>  <Shape Index>
0.36667

>  <Molecular Flexibility>
0.12976

>  <Molecular Complexity>
1.0925

>  <Electronegative Atoms>
12

>  <Stereo Centers>
8

>  <Rotatable Bonds>
0

>  <Rings Closures>
5

>  <Aromatic Rings>
0

>  <Aromatic Atoms>
0

>  <Amides>
0

>  <Amines>
0

>  <Aromatic Nitrogens>
0

>  <Shape Index 2>
0.36667

>  <Molecular Flexibility 2>
0.12976

>  <Molecular Complexity 2>
1.0925

>  <Non-C/H Atoms>
12

>  <Electronegative Atoms 2>
12

>  <Stereo Centers 2>
8

>  <Rotatable Bonds 2>
0

>  <Rings Closures 2>
5

>  <Aromatic Rings 2>
0

>  <Aromatic Atoms 2>
0

>  <sp3-Atoms>
14

>  <Amides 2>
0

>  <Amines 2>
0

>  <Aromatic Nitrogens 2>
0

>  <Basic Nitrogens>
0

$$$$
anti-Dechlorane plus
Actelion Java MolfileCreator 2.0

  0  0  0  0  0  0              0 V3000
M  V30 BEGIN CTAB
M  V30 COUNTS 30 34 0 0 0
M  V30 BEGIN ATOM
M  V30 1 Cl 0.0 0.0 0.0 0
M  V30 2 C -1.2311 -0.6976 0.0 0
M  V30 3 C -2.5306 -0.1094 0.0 0
M  V30 4 C -1.3952 -2.0928 0.0 0
M  V30 5 Cl -2.8315 1.2858 0.0 0
M  V30 6 C -3.4881 -1.149 0.0 0
M  V30 7 Cl -0.0957 -2.599 0.0 0
M  V30 8 C -2.7905 -2.3664 0.0 0
M  V30 9 C -2.3391 -3.6386 0.0 0
M  V30 10 Cl -4.7603 -0.5061 0.0 0
M  V30 11 C -4.0353 -2.8726 0.0 0
M  V30 12 Cl -3.9806 -3.4471 0.0 0
M  V30 13 Cl -2.8178 -3.9669 0.0 0
M  V30 14 C -2.0928 -4.9381 0.0 0
M  V30 15 C -5.2117 -3.5428 0.0 0
M  V30 16 C -2.681 -6.2102 0.0 0
M  V30 17 C -5.7999 -4.815 0.0 0
M  V30 18 C -4.0079 -6.7027 0.0 0
M  V30 19 C -5.3074 -6.1145 0.0 0
M  V30 20 C -4.1721 -8.0979 0.0 0
M  V30 21 C -6.265 -7.1541 0.0 0
M  V30 22 Cl -2.8726 -8.6041 0.0 0
M  V30 23 C -5.1159 -9.6437 0.0 0
M  V30 24 C -5.5673 -8.3715 0.0 0
M  V30 25 Cl -7.5371 -6.5112 0.0 0
M  V30 26 C -6.8121 -8.8777 0.0 0
M  V30 27 Cl -5.0065 -10.9979 0.0 0
M  V30 28 Cl -6.7574 -9.4522 0.0 0
M  V30 29 Cl -5.6084 -9.9583 0.0 0
M  V30 30 Cl -7.9201 -9.6847 0.0 0
M  V30 END ATOM
M  V30 BEGIN BOND
M  V30 1 1 1 2
M  V30 2 2 2 3
M  V30 3 1 2 4
M  V30 4 1 3 5
M  V30 5 1 3 6
M  V30 6 1 4 7
M  V30 7 1 4 8
M  V30 8 1 4 9
M  V30 9 1 6 10
M  V30 10 1 6 11
M  V30 11 1 8 12
M  V30 12 1 8 13
M  V30 13 1 9 14
M  V30 14 1 11 15
M  V30 15 1 14 16
M  V30 16 1 15 17
M  V30 17 1 16 18
M  V30 18 1 17 19
M  V30 19 1 18 20
M  V30 20 1 19 21
M  V30 21 1 20 22
M  V30 22 1 20 23
M  V30 23 1 20 24
M  V30 24 1 21 25
M  V30 25 1 21 26
M  V30 26 1 23 27
M  V30 27 1 24 28
M  V30 28 1 24 29
M  V30 29 1 26 30
M  V30 30 1 6 8
M  V30 31 1 9 11
M  V30 32 1 18 19
M  V30 33 1 21 24
M  V30 34 2 23 26
M  V30 END BOND
M  V30 END CTAB
M  END
>  <Molecule Name>
anti-Dechlorane plus

>  <Order (spectra)>
122

>  <NAME>
anti-Dechlorane plus

>  <Molecular Formula>
C18H12Cl12

>  <Monoisotopic Mass>
647.720124

>  <SMILES>
ClC1=C(Cl)C2(Cl)C3CCC4C(CCC3C1(Cl)C2(Cl)Cl)C1(Cl)C(Cl)=C(Cl)C4(Cl)C1(Cl)Cl

>  <InChI>
InChI=1S/C18H12Cl12/c19-9-10(20)15(25)7-3-4-8-6(2-1-5(7)13(9,23)17(15,27)28)14(24)11(21)12(22)16(8,26)18(14,29)30/h5-8H,1-4H2

>  <InChIKey>
UGQQAJOWXNCOPY-UHFFFAOYSA-N

>  <Kingdom>
Organic compounds

>  <Superclass>
Organohalogen compounds

>  <Class>
Vinyl halides

>  <Subclass>
Vinyl chlorides

>  <Parent Level 1>
Vinyl chlorides

>  <Parent Level 2>


>  <Parent Level 3>


>  <cLogP>
9.9698

>  <cLogS>
-10.318

>  <Druglikeness>
-1.5445

>  <NP-class probability>
0.27

>  <SmilesFragFp 3>


>  <MS_READY_SMILES>
ClC1=C(Cl)C2(Cl)C3CCC4C(CCC3C1(Cl)C2(Cl)Cl)C1(Cl)C(Cl)=C(Cl)C4(Cl)C1(Cl)Cl

>  <MS_READY_InChI>
InChI=1S/C18H12Cl12/c19-9-10(20)15(25)7-3-4-8-6(2-1-5(7)13(9,23)17(15,27)28)14(24)11(21)12(22)16(8,26)18(14,29)30/h5-8H,1-4H2

>  <QSAR_READY_SMILES>
ClC1=C(Cl)C2(Cl)C3CCC4C(CCC3C1(Cl)C2(Cl)Cl)C1(Cl)C(Cl)=C(Cl)C4(Cl)C1(Cl)Cl

>  <QSAR_READY_InChI>
InChI=1S/C18H12Cl12/c19-9-10(20)15(25)7-3-4-8-6(2-1-5(7)13(9,23)17(15,27)28)14(24)11(21)12(22)16(8,26)18(14,29)30/h5-8H,1-4H2

>  <DTXSID>
DTXSID7027750

>  <DTXCID>
DTXCID607750

>  <CASRN>
13560-89-9

>  <EXPOCAST_MEDIAN_EXPOSURE_PREDICTION_MG/KG-BW/DAY>
7.73E-06

>  <BIOCONCENTRATION_FACTOR_TEST_PRED>
1492.79

>  <BOILING_POINT_DEGC_TEST_PRED>
449.437

>  <48HR_DAPHNIA_LC50_MOL/L_TEST_PRED>
3.21E-09

>  <DENSITY_G/CM^3_TEST_PRED>
2.077

>  <DEVTOX_TEST_PRED>
-

>  <96HR_FATHEAD_MINNOW_MOL/L_TEST_PRED>
1.51E-09

>  <FLASH_POINT_DEGC_TEST_PRED>
252.069

>  <MELTING_POINT_DEGC_TEST_PRED>
201.252

>  <AMES_MUTAGENICITY_TEST_PRED>
0.164

>  <ORAL_RAT_LD50_MOL/KG_TEST_PRED>
0.00216272

>  <SURFACE_TENSION_DYN/CM_TEST_PRED>
-

>  <THERMAL_CONDUCTIVITY_MW/(M*K)_TEST_PRED>
-

>  <TETRAHYMENA_PYRIFORMIS_IGC50_MOL/L_TEST_PRED>
-

>  <VISCOSITY_CP_CP_TEST_PRED>
-

>  <VAPOR_PRESSURE_MMHG_TEST_PRED>
6.01E-08

>  <WATER_SOLUBILITY_MOL/L_TEST_PRED>
2.33E-10

>  <ATMOSPHERIC_HYDROXYLATION_RATE_(AOH)_CM3/MOLECULE*SEC_OPERA_PRED>
1.87E-11

>  <BIOCONCENTRATION_FACTOR_OPERA_PRED>
3398.27

>  <BIODEGRADATION_HALF_LIFE_DAYS_DAYS_OPERA_PRED>
543.241

>  <BOILING_POINT_DEGC_OPERA_PRED>
469.402

>  <HENRYS_LAW_ATM-M3/MOLE_OPERA_PRED>
5.76E-05

>  <OPERA_KM_DAYS_OPERA_PRED>
52.4176

>  <OCTANOL_AIR_PARTITION_COEFF_LOGKOA_OPERA_PRED>
11.6775

>  <SOIL_ADSORPTION_COEFFICIENT_KOC_L/KG_OPERA_PRED>
83032.6

>  <OCTANOL_WATER_PARTITION_LOGP_OPERA_PRED>
6.37302

>  <MELTING_POINT_DEGC_OPERA_PRED>
182.93

>  <VAPOR_PRESSURE_MMHG_OPERA_PRED>
4.70E-10

>  <WATER_SOLUBILITY_MOL/L_OPERA_PRED>
6.84E-14

>  <Shape Index>
0.36667

>  <Molecular Flexibility>
0.15658

>  <Molecular Complexity>
1.0839

>  <Electronegative Atoms>
12

>  <Stereo Centers>
8

>  <Rotatable Bonds>
0

>  <Rings Closures>
5

>  <Aromatic Rings>
0

>  <Aromatic Atoms>
0

>  <Amides>
0

>  <Amines>
0

>  <Aromatic Nitrogens>
0

>  <Shape Index 2>
0.36667

>  <Molecular Flexibility 2>
0.15658

>  <Molecular Complexity 2>
1.0839

>  <Non-C/H Atoms>
12

>  <Electronegative Atoms 2>
12

>  <Stereo Centers 2>
8

>  <Rotatable Bonds 2>
0

>  <Rings Closures 2>
5

>  <Aromatic Rings 2>
0

>  <Aromatic Atoms 2>
0

>  <sp3-Atoms>
14

>  <Amides 2>
0

>  <Amines 2>
0

>  <Aromatic Nitrogens 2>
0

>  <Basic Nitrogens>
0

$$$$
Aldrin
Actelion Java MolfileCreator 2.0

  0  0  0  0  0  0              0 V3000
M  V30 BEGIN CTAB
M  V30 COUNTS 18 21 0 0 0
M  V30 BEGIN ATOM
M  V30 1 Cl 0.0 0.0 0.0 0
M  V30 2 C -1.2002 -0.6733 0.0 0
M  V30 3 C -2.4736 -0.1024 0.0 0
M  V30 4 C -1.3612 -2.0199 0.0 0 CFG=1
M  V30 5 Cl -2.781 1.2587 0.0 0
M  V30 6 C -3.4104 -1.1124 0.0 0 CFG=1
M  V30 7 Cl -0.1024 -2.5029 0.0 0
M  V30 8 C -2.7224 -2.298 0.0 0
M  V30 9 C -2.2833 -3.5275 0.0 0 CFG=1
M  V30 10 Cl -4.6545 -0.483 0.0 0
M  V30 11 C -3.9373 -2.7956 0.0 0 CFG=2
M  V30 12 Cl -3.8495 -3.3226 0.0 0
M  V30 13 Cl -2.7664 -3.8056 0.0 0
M  V30 14 C -2.6639 -4.8741 0.0 0 CFG=1
M  V30 15 C -4.7131 -3.9666 0.0 0 CFG=1
M  V30 16 C -3.8202 -6.3671 0.0 0
M  V30 17 C -4.0251 -5.1522 0.0 0
M  V30 18 C -5.0936 -5.8109 0.0 0
M  V30 END ATOM
M  V30 BEGIN BOND
M  V30 1 1 1 2
M  V30 2 2 2 3
M  V30 3 1 2 4
M  V30 4 1 3 5
M  V30 5 1 3 6
M  V30 6 1 4 7 CFG=1
M  V30 7 1 4 8
M  V30 8 1 4 9
M  V30 9 1 6 10 CFG=1
M  V30 10 1 6 11
M  V30 11 1 8 12
M  V30 12 1 8 13
M  V30 13 1 9 14 CFG=3
M  V30 14 1 11 15 CFG=3
M  V30 15 1 14 16 CFG=1
M  V30 16 1 14 17
M  V30 17 1 15 18 CFG=1
M  V30 18 1 6 8
M  V30 19 1 9 11
M  V30 20 1 15 17
M  V30 21 2 16 18
M  V30 END BOND
M  V30 BEGIN COLLECTION
M  V30 MDLV30/STEABS ATOMS=(6 4 6 9 11 14 15)
M  V30 END COLLECTION
M  V30 END CTAB
M  END
>  <Molecule Name>
Aldrin

>  <Order (spectra)>
156

>  <NAME>
Aldrin

>  <Molecular Formula>
C12H8Cl6

>  <Monoisotopic Mass>
361.875712

>  <SMILES>
ClC1=C(Cl)[C@]2(Cl)[C@@H]3[C@@H]4C[C@@H](C=C4)[C@@H]3[C@@]1(Cl)C2(Cl)Cl

>  <InChI>
InChI=1S/C12H8Cl6/c13-8-9(14)11(16)7-5-2-1-4(3-5)6(7)10(8,15)12(11,17)18/h1-2,4-7H,3H2/t4-,5-,6-,7+,10+,11-/m0/s1

>  <InChIKey>
QBYJBZPUGVGKQQ-SJJAEHHWSA-N

>  <Kingdom>
Organic compounds

>  <Superclass>
Organohalogen compounds

>  <Class>
Vinyl halides

>  <Subclass>
Vinyl chlorides

>  <Parent Level 1>
Vinyl chlorides

>  <Parent Level 2>


>  <Parent Level 3>


>  <cLogP>
5.0721

>  <cLogS>
-5.872

>  <Druglikeness>
-0.44795

>  <NP-class probability>
0.35

>  <SmilesFragFp 3>


>  <MS_READY_SMILES>
ClC1=C(Cl)C2(Cl)C3C4CC(C=C4)C3C1(Cl)C2(Cl)Cl

>  <MS_READY_InChI>
InChI=1S/C12H8Cl6/c13-8-9(14)11(16)7-5-2-1-4(3-5)6(7)10(8,15)12(11,17)18/h1-2,4-7H,3H2

>  <QSAR_READY_SMILES>
ClC1=C(Cl)C2(Cl)C3C4CC(C=C4)C3C1(Cl)C2(Cl)Cl

>  <QSAR_READY_InChI>
InChI=1S/C12H8Cl6/c13-8-9(14)11(16)7-5-2-1-4(3-5)6(7)10(8,15)12(11,17)18/h1-2,4-7H,3H2

>  <DTXSID>
DTXSID8020040

>  <DTXCID>
DTXCID10819882

>  <CASRN>
309-00-2

>  <EXPOCAST_MEDIAN_EXPOSURE_PREDICTION_MG/KG-BW/DAY>
3.28E-11

>  <BIOCONCENTRATION_FACTOR_TEST_PRED>
4017.91

>  <BOILING_POINT_DEGC_TEST_PRED>
355.96

>  <48HR_DAPHNIA_LC50_MOL/L_TEST_PRED>
1.91E-07

>  <DENSITY_G/CM^3_TEST_PRED>
1.739

>  <DEVTOX_TEST_PRED>
0.493

>  <96HR_FATHEAD_MINNOW_MOL/L_TEST_PRED>
2.23E-07

>  <FLASH_POINT_DEGC_TEST_PRED>
176.325

>  <MELTING_POINT_DEGC_TEST_PRED>
169.573

>  <AMES_MUTAGENICITY_TEST_PRED>
0.166

>  <ORAL_RAT_LD50_MOL/KG_TEST_PRED>
0.000106414

>  <SURFACE_TENSION_DYN/CM_TEST_PRED>
-

>  <THERMAL_CONDUCTIVITY_MW/(M*K)_TEST_PRED>
-

>  <TETRAHYMENA_PYRIFORMIS_IGC50_MOL/L_TEST_PRED>
-

>  <VISCOSITY_CP_CP_TEST_PRED>
-

>  <VAPOR_PRESSURE_MMHG_TEST_PRED>
5.77E-05

>  <WATER_SOLUBILITY_MOL/L_TEST_PRED>
1.17E-07

>  <ATMOSPHERIC_HYDROXYLATION_RATE_(AOH)_CM3/MOLECULE*SEC_OPERA_PRED>
8.03E-11

>  <BIOCONCENTRATION_FACTOR_OPERA_PRED>
5507.68

>  <BIODEGRADATION_HALF_LIFE_DAYS_DAYS_OPERA_PRED>
328.804

>  <BOILING_POINT_DEGC_OPERA_PRED>
323.769

>  <HENRYS_LAW_ATM-M3/MOLE_OPERA_PRED>
4.41E-05

>  <OPERA_KM_DAYS_OPERA_PRED>
23.4902

>  <OCTANOL_AIR_PARTITION_COEFF_LOGKOA_OPERA_PRED>
8.66096

>  <SOIL_ADSORPTION_COEFFICIENT_KOC_L/KG_OPERA_PRED>
48966

>  <OCTANOL_WATER_PARTITION_LOGP_OPERA_PRED>
6.49722

>  <MELTING_POINT_DEGC_OPERA_PRED>
132.508

>  <VAPOR_PRESSURE_MMHG_OPERA_PRED>
0.000119472

>  <WATER_SOLUBILITY_MOL/L_OPERA_PRED>
7.28E-08

>  <Shape Index>
0.38889

>  <Molecular Flexibility>
0

>  <Molecular Complexity>
1.0212

>  <Electronegative Atoms>
6

>  <Stereo Centers>
6

>  <Rotatable Bonds>
0

>  <Rings Closures>
4

>  <Aromatic Rings>
0

>  <Aromatic Atoms>
0

>  <Amides>
0

>  <Amines>
0

>  <Aromatic Nitrogens>
0

>  <Shape Index 2>
0.38889

>  <Molecular Flexibility 2>
0

>  <Molecular Complexity 2>
1.0212

>  <Non-C/H Atoms>
6

>  <Electronegative Atoms 2>
6

>  <Stereo Centers 2>
6

>  <Rotatable Bonds 2>
0

>  <Rings Closures 2>
4

>  <Aromatic Rings 2>
0

>  <Aromatic Atoms 2>
0

>  <sp3-Atoms>
8

>  <Amides 2>
0

>  <Amines 2>
0

>  <Aromatic Nitrogens 2>
0

>  <Basic Nitrogens>
0

$$$$
Heptachlor
Actelion Java MolfileCreator 2.0

  0  0  0  0  0  0              0 V3000
M  V30 BEGIN CTAB
M  V30 COUNTS 17 19 0 0 0
M  V30 BEGIN ATOM
M  V30 1 Cl 0.0 0.0 0.0 0
M  V30 2 C -1.2355 -0.7001 0.0 0
M  V30 3 C -2.5397 -0.1098 0.0 0
M  V30 4 C -1.4002 -2.0866 0.0 0
M  V30 5 Cl -2.8417 1.2904 0.0 0
M  V30 6 C -3.5007 -1.1531 0.0 0
M  V30 7 Cl -0.096 -2.5946 0.0 0
M  V30 8 C -2.8005 -2.3612 0.0 0
M  V30 9 C -2.3475 -3.6379 0.0 0
M  V30 10 Cl -4.7774 -0.5079 0.0 0
M  V30 11 C -4.0498 -2.8829 0.0 0
M  V30 12 Cl -3.9537 -3.4183 0.0 0
M  V30 13 Cl -2.8554 -3.9125 0.0 0
M  V30 14 C -2.7456 -5.0245 0.0 0
M  V30 15 C -4.846 -4.091 0.0 0
M  V30 16 C -4.1459 -5.2991 0.0 0
M  V30 17 Cl -6.26 -3.9262 0.0 0
M  V30 END ATOM
M  V30 BEGIN BOND
M  V30 1 1 1 2
M  V30 2 2 2 3
M  V30 3 1 2 4
M  V30 4 1 3 5
M  V30 5 1 3 6
M  V30 6 1 4 7
M  V30 7 1 4 8
M  V30 8 1 4 9
M  V30 9 1 6 10
M  V30 10 1 6 11
M  V30 11 1 8 12
M  V30 12 1 8 13
M  V30 13 1 9 14
M  V30 14 1 11 15
M  V30 15 2 14 16
M  V30 16 1 15 17
M  V30 17 1 6 8
M  V30 18 1 9 11
M  V30 19 1 15 16
M  V30 END BOND
M  V30 END CTAB
M  END
>  <Molecule Name>
Heptachlor

>  <Order (spectra)>
158

>  <NAME>
Heptachlor

>  <Molecular Formula>
C10H5Cl7

>  <Monoisotopic Mass>
369.821089

>  <SMILES>
ClC1C=CC2C1C1(Cl)C(Cl)=C(Cl)C2(Cl)C1(Cl)Cl

>  <InChI>
InChI=1S/C10H5Cl7/c11-4-2-1-3-5(4)9(15)7(13)6(12)8(3,14)10(9,16)17/h1-5H

>  <InChIKey>
FRCCEHPWNOQAEU-UHFFFAOYSA-N

>  <Kingdom>
Organic compounds

>  <Superclass>
Organohalogen compounds

>  <Class>
Vinyl halides

>  <Subclass>
Vinyl chlorides

>  <Parent Level 1>
Vinyl chlorides

>  <Parent Level 2>


>  <Parent Level 3>


>  <cLogP>
5.1117

>  <cLogS>
-5.793

>  <Druglikeness>
-0.60406

>  <NP-class probability>
0.37

>  <SmilesFragFp 3>


>  <MS_READY_SMILES>
ClC1C=CC2C1C1(Cl)C(Cl)=C(Cl)C2(Cl)C1(Cl)Cl

>  <MS_READY_InChI>
InChI=1S/C10H5Cl7/c11-4-2-1-3-5(4)9(15)7(13)6(12)8(3,14)10(9,16)17/h1-5H

>  <QSAR_READY_SMILES>
ClC1C=CC2C1C1(Cl)C(Cl)=C(Cl)C2(Cl)C1(Cl)Cl

>  <QSAR_READY_InChI>
InChI=1S/C10H5Cl7/c11-4-2-1-3-5(4)9(15)7(13)6(12)8(3,14)10(9,16)17/h1-5H

>  <DTXSID>
DTXSID3020679

>  <DTXCID>
DTXCID70679

>  <CASRN>
76-44-8

>  <EXPOCAST_MEDIAN_EXPOSURE_PREDICTION_MG/KG-BW/DAY>
6.67E-11

>  <BIOCONCENTRATION_FACTOR_TEST_PRED>
4436.09

>  <BOILING_POINT_DEGC_TEST_PRED>
317.389

>  <48HR_DAPHNIA_LC50_MOL/L_TEST_PRED>
3.81E-07

>  <DENSITY_G/CM^3_TEST_PRED>
1.813

>  <DEVTOX_TEST_PRED>
0.441

>  <96HR_FATHEAD_MINNOW_MOL/L_TEST_PRED>
2.07E-07

>  <FLASH_POINT_DEGC_TEST_PRED>
189.829

>  <MELTING_POINT_DEGC_TEST_PRED>
108.975

>  <AMES_MUTAGENICITY_TEST_PRED>
0.052

>  <ORAL_RAT_LD50_MOL/KG_TEST_PRED>
0.00127938

>  <SURFACE_TENSION_DYN/CM_TEST_PRED>
-

>  <THERMAL_CONDUCTIVITY_MW/(M*K)_TEST_PRED>
-

>  <TETRAHYMENA_PYRIFORMIS_IGC50_MOL/L_TEST_PRED>
-

>  <VISCOSITY_CP_CP_TEST_PRED>
-

>  <VAPOR_PRESSURE_MMHG_TEST_PRED>
4.38E-05

>  <WATER_SOLUBILITY_MOL/L_TEST_PRED>
9.25E-08

>  <ATMOSPHERIC_HYDROXYLATION_RATE_(AOH)_CM3/MOLECULE*SEC_OPERA_PRED>
5.94E-11

>  <BIOCONCENTRATION_FACTOR_OPERA_PRED>
8708.86

>  <BIODEGRADATION_HALF_LIFE_DAYS_DAYS_OPERA_PRED>
146.66

>  <BOILING_POINT_DEGC_OPERA_PRED>
310.062

>  <HENRYS_LAW_ATM-M3/MOLE_OPERA_PRED>
0.000292218

>  <OPERA_KM_DAYS_OPERA_PRED>
28.2576

>  <OCTANOL_AIR_PARTITION_COEFF_LOGKOA_OPERA_PRED>
7.7734

>  <SOIL_ADSORPTION_COEFFICIENT_KOC_L/KG_OPERA_PRED>
23997.2

>  <OCTANOL_WATER_PARTITION_LOGP_OPERA_PRED>
6.09905

>  <MELTING_POINT_DEGC_OPERA_PRED>
95.5231

>  <VAPOR_PRESSURE_MMHG_OPERA_PRED>
0.000395431

>  <WATER_SOLUBILITY_MOL/L_OPERA_PRED>
3.82E-07

>  <Shape Index>
0.41176

>  <Molecular Flexibility>
0

>  <Molecular Complexity>
0.99229

>  <Electronegative Atoms>
7

>  <Stereo Centers>
5

>  <Rotatable Bonds>
0

>  <Rings Closures>
3

>  <Aromatic Rings>
0

>  <Aromatic Atoms>
0

>  <Amides>
0

>  <Amines>
0

>  <Aromatic Nitrogens>
0

>  <Shape Index 2>
0.41176

>  <Molecular Flexibility 2>
0

>  <Molecular Complexity 2>
0.99229

>  <Non-C/H Atoms>
7

>  <Electronegative Atoms 2>
7

>  <Stereo Centers 2>
5

>  <Rotatable Bonds 2>
0

>  <Rings Closures 2>
3

>  <Aromatic Rings 2>
0

>  <Aromatic Atoms 2>
0

>  <sp3-Atoms>
6

>  <Amides 2>
0

>  <Amines 2>
0

>  <Aromatic Nitrogens 2>
0

>  <Basic Nitrogens>
0

$$$$
trans-Chlordane
Actelion Java MolfileCreator 2.0

  0  0  0  0  0  0              0 V3000
M  V30 BEGIN CTAB
M  V30 COUNTS 18 20 0 0 0
M  V30 BEGIN ATOM
M  V30 1 Cl 0.0 0.0 0.0 0
M  V30 2 C -1.2403 -0.7028 0.0 0
M  V30 3 C -2.5496 -0.1102 0.0 0
M  V30 4 C -1.4057 -2.0948 0.0 0 CFG=2
M  V30 5 Cl -2.8528 1.2955 0.0 0
M  V30 6 C -3.5144 -1.1576 0.0 0 CFG=2
M  V30 7 Cl -0.0964 -2.6048 0.0 0
M  V30 8 C -2.8115 -2.3705 0.0 0
M  V30 9 C -2.3567 -3.6522 0.0 0 CFG=1
M  V30 10 Cl -4.7961 -0.5099 0.0 0
M  V30 11 C -4.0656 -2.8942 0.0 0 CFG=2
M  V30 12 Cl -3.9692 -3.4317 0.0 0
M  V30 13 Cl -2.8666 -3.9278 0.0 0
M  V30 14 C -2.7564 -5.0442 0.0 0 CFG=1
M  V30 15 C -4.865 -4.107 0.0 0
M  V30 16 Cl -1.7089 -5.9813 0.0 0
M  V30 17 C -4.1621 -5.3198 0.0 0 CFG=1
M  V30 18 Cl -4.7547 -6.6015 0.0 0
M  V30 END ATOM
M  V30 BEGIN BOND
M  V30 1 1 1 2
M  V30 2 2 2 3
M  V30 3 1 2 4
M  V30 4 1 3 5
M  V30 5 1 3 6
M  V30 6 1 4 7 CFG=3
M  V30 7 1 4 8
M  V30 8 1 4 9
M  V30 9 1 6 10 CFG=3
M  V30 10 1 6 11
M  V30 11 1 8 12
M  V30 12 1 8 13
M  V30 13 1 9 14 CFG=3
M  V30 14 1 11 15 CFG=3
M  V30 15 1 14 16 CFG=1
M  V30 16 1 14 17
M  V30 17 1 17 18 CFG=3
M  V30 18 1 6 8
M  V30 19 1 9 11
M  V30 20 1 15 17
M  V30 END BOND
M  V30 BEGIN COLLECTION
M  V30 MDLV30/STEABS ATOMS=(6 4 6 9 11 14 17)
M  V30 END COLLECTION
M  V30 END CTAB
M  END
>  <Molecule Name>
trans-Chlordane

>  <Order (spectra)>
162

>  <NAME>
trans-Chlordane

>  <Molecular Formula>
C10H6Cl8

>  <Monoisotopic Mass>
405.797766

>  <SMILES>
C1[C@H]2[C@@H]([C@H]([C@@H]1Cl)Cl)[C@@]3(C(=C([C@]2(C3(Cl)Cl)Cl)Cl)Cl)Cl

>  <InChI>
InChI=1S/C10H6Cl8/c11-3-1-2-4(5(3)12)9(16)7(14)6(13)8(2,15)10(9,17)18/h2-5H,1H2/t2-,3+,4-,5+,8-,9+/m1/s1

>  <InChIKey>
BIWJNBZANLAXMG-GPTKHRSPSA-N

>  <Kingdom>
Organic compounds

>  <Superclass>
Organohalogen compounds

>  <Class>
Vinyl halides

>  <Subclass>
Vinyl chlorides

>  <Parent Level 1>
Vinyl chlorides

>  <Parent Level 2>


>  <Parent Level 3>


>  <cLogP>
5.6721

>  <cLogS>
-6.348

>  <Druglikeness>
-0.49448

>  <NP-class probability>
0.37

>  <SmilesFragFp 3>


>  <MS_READY_SMILES>
-

>  <MS_READY_InChI>


>  <QSAR_READY_SMILES>
-

>  <QSAR_READY_InChI>


>  <DTXSID>
-

>  <DTXCID>
-

>  <CASRN>
-

>  <EXPOCAST_MEDIAN_EXPOSURE_PREDICTION_MG/KG-BW/DAY>
-

>  <BIOCONCENTRATION_FACTOR_TEST_PRED>
-

>  <BOILING_POINT_DEGC_TEST_PRED>
-

>  <48HR_DAPHNIA_LC50_MOL/L_TEST_PRED>
-

>  <DENSITY_G/CM^3_TEST_PRED>
-

>  <DEVTOX_TEST_PRED>
-

>  <96HR_FATHEAD_MINNOW_MOL/L_TEST_PRED>
-

>  <FLASH_POINT_DEGC_TEST_PRED>
-

>  <MELTING_POINT_DEGC_TEST_PRED>
-

>  <AMES_MUTAGENICITY_TEST_PRED>
-

>  <ORAL_RAT_LD50_MOL/KG_TEST_PRED>
-

>  <SURFACE_TENSION_DYN/CM_TEST_PRED>
-

>  <THERMAL_CONDUCTIVITY_MW/(M*K)_TEST_PRED>
-

>  <TETRAHYMENA_PYRIFORMIS_IGC50_MOL/L_TEST_PRED>
-

>  <VISCOSITY_CP_CP_TEST_PRED>
-

>  <VAPOR_PRESSURE_MMHG_TEST_PRED>
-

>  <WATER_SOLUBILITY_MOL/L_TEST_PRED>
-

>  <ATMOSPHERIC_HYDROXYLATION_RATE_(AOH)_CM3/MOLECULE*SEC_OPERA_PRED>
-

>  <BIOCONCENTRATION_FACTOR_OPERA_PRED>
-

>  <BIODEGRADATION_HALF_LIFE_DAYS_DAYS_OPERA_PRED>
-

>  <BOILING_POINT_DEGC_OPERA_PRED>
-

>  <HENRYS_LAW_ATM-M3/MOLE_OPERA_PRED>
-

>  <OPERA_KM_DAYS_OPERA_PRED>
-

>  <OCTANOL_AIR_PARTITION_COEFF_LOGKOA_OPERA_PRED>
-

>  <SOIL_ADSORPTION_COEFFICIENT_KOC_L/KG_OPERA_PRED>
-

>  <OCTANOL_WATER_PARTITION_LOGP_OPERA_PRED>
-

>  <MELTING_POINT_DEGC_OPERA_PRED>
-

>  <VAPOR_PRESSURE_MMHG_OPERA_PRED>
-

>  <WATER_SOLUBILITY_MOL/L_OPERA_PRED>
-

>  <Shape Index>
0.38889

>  <Molecular Flexibility>
0

>  <Molecular Complexity>
1.0123

>  <Electronegative Atoms>
8

>  <Stereo Centers>
6

>  <Rotatable Bonds>
0

>  <Rings Closures>
3

>  <Aromatic Rings>
0

>  <Aromatic Atoms>
0

>  <Amides>
0

>  <Amines>
0

>  <Aromatic Nitrogens>
0

>  <Shape Index 2>
0.38889

>  <Molecular Flexibility 2>
0

>  <Molecular Complexity 2>
1.0123

>  <Non-C/H Atoms>
8

>  <Electronegative Atoms 2>
8

>  <Stereo Centers 2>
6

>  <Rotatable Bonds 2>
0

>  <Rings Closures 2>
3

>  <Aromatic Rings 2>
0

>  <Aromatic Atoms 2>
0

>  <sp3-Atoms>
8

>  <Amides 2>
0

>  <Amines 2>
0

>  <Aromatic Nitrogens 2>
0

>  <Basic Nitrogens>
0

$$$$
cis-Chlordane
Actelion Java MolfileCreator 2.0

  0  0  0  0  0  0              0 V3000
M  V30 BEGIN CTAB
M  V30 COUNTS 18 20 0 0 0
M  V30 BEGIN ATOM
M  V30 1 Cl 0.0 0.0 0.0 0
M  V30 2 C -1.2403 -0.7028 0.0 0
M  V30 3 C -2.5496 -0.1102 0.0 0
M  V30 4 C -1.4057 -2.0948 0.0 0 CFG=1
M  V30 5 Cl -2.8528 1.2955 0.0 0
M  V30 6 C -3.5144 -1.1576 0.0 0 CFG=1
M  V30 7 Cl -0.0964 -2.6048 0.0 0
M  V30 8 C -2.8115 -2.3705 0.0 0
M  V30 9 C -2.3567 -3.6522 0.0 0 CFG=1
M  V30 10 Cl -4.7961 -0.5099 0.0 0
M  V30 11 C -4.0656 -2.8942 0.0 0 CFG=2
M  V30 12 Cl -3.9692 -3.4317 0.0 0
M  V30 13 Cl -2.8666 -3.9278 0.0 0
M  V30 14 C -2.7564 -5.0442 0.0 0 CFG=1
M  V30 15 C -4.865 -4.107 0.0 0
M  V30 16 Cl -1.7089 -5.9813 0.0 0
M  V30 17 C -4.1621 -5.3198 0.0 0 CFG=2
M  V30 18 Cl -4.7547 -6.6015 0.0 0
M  V30 END ATOM
M  V30 BEGIN BOND
M  V30 1 1 1 2
M  V30 2 2 2 3
M  V30 3 1 2 4
M  V30 4 1 3 5
M  V30 5 1 3 6
M  V30 6 1 4 7 CFG=1
M  V30 7 1 4 8
M  V30 8 1 4 9
M  V30 9 1 6 10 CFG=1
M  V30 10 1 6 11
M  V30 11 1 8 12
M  V30 12 1 8 13
M  V30 13 1 9 14 CFG=3
M  V30 14 1 11 15 CFG=3
M  V30 15 1 14 16 CFG=1
M  V30 16 1 14 17
M  V30 17 1 17 18 CFG=1
M  V30 18 1 6 8
M  V30 19 1 9 11
M  V30 20 1 15 17
M  V30 END BOND
M  V30 BEGIN COLLECTION
M  V30 MDLV30/STEABS ATOMS=(6 4 6 9 11 14 17)
M  V30 END COLLECTION
M  V30 END CTAB
M  END
>  <Molecule Name>
cis-Chlordane

>  <Order (spectra)>
163

>  <NAME>
cis-Chlordane

>  <Molecular Formula>
C10H6Cl8

>  <Monoisotopic Mass>
405.797766

>  <SMILES>
Cl[C@H]1C[C@H]2[C@@H]([C@H]1Cl)[C@@]1(Cl)C(Cl)=C(Cl)[C@]2(Cl)C1(Cl)Cl

>  <InChI>
InChI=1S/C10H6Cl8/c11-3-1-2-4(5(3)12)9(16)7(14)6(13)8(2,15)10(9,17)18/h2-5H,1H2/t2-,3-,4-,5+,8+,9-/m1/s1

>  <InChIKey>
BIWJNBZANLAXMG-KMMBHOGFSA-N

>  <Kingdom>
Organic compounds

>  <Superclass>
Organohalogen compounds

>  <Class>
Vinyl halides

>  <Subclass>
Vinyl chlorides

>  <Parent Level 1>
Vinyl chlorides

>  <Parent Level 2>


>  <Parent Level 3>


>  <cLogP>
5.6721

>  <cLogS>
-6.348

>  <Druglikeness>
-0.49448

>  <NP-class probability>
0.37

>  <SmilesFragFp 3>


>  <MS_READY_SMILES>
ClC1CC2C(C1Cl)C1(Cl)C(Cl)=C(Cl)C2(Cl)C1(Cl)Cl

>  <MS_READY_InChI>
InChI=1S/C10H6Cl8/c11-3-1-2-4(5(3)12)9(16)7(14)6(13)8(2,15)10(9,17)18/h2-5H,1H2

>  <QSAR_READY_SMILES>
ClC1CC2C(C1Cl)C1(Cl)C(Cl)=C(Cl)C2(Cl)C1(Cl)Cl

>  <QSAR_READY_InChI>
InChI=1S/C10H6Cl8/c11-3-1-2-4(5(3)12)9(16)7(14)6(13)8(2,15)10(9,17)18/h2-5H,1H2

>  <DTXSID>
DTXSID6038326

>  <DTXCID>
DTXCID00820189

>  <CASRN>
5103-71-9

>  <EXPOCAST_MEDIAN_EXPOSURE_PREDICTION_MG/KG-BW/DAY>
1.73E-07

>  <BIOCONCENTRATION_FACTOR_TEST_PRED>
3810.66

>  <BOILING_POINT_DEGC_TEST_PRED>
326.756

>  <48HR_DAPHNIA_LC50_MOL/L_TEST_PRED>
5.31E-07

>  <DENSITY_G/CM^3_TEST_PRED>
1.855

>  <DEVTOX_TEST_PRED>
0.367

>  <96HR_FATHEAD_MINNOW_MOL/L_TEST_PRED>
1.53E-07

>  <FLASH_POINT_DEGC_TEST_PRED>
195.484

>  <MELTING_POINT_DEGC_TEST_PRED>
110.726

>  <AMES_MUTAGENICITY_TEST_PRED>
0.077

>  <ORAL_RAT_LD50_MOL/KG_TEST_PRED>
0.00134276

>  <SURFACE_TENSION_DYN/CM_TEST_PRED>
-

>  <THERMAL_CONDUCTIVITY_MW/(M*K)_TEST_PRED>
-

>  <TETRAHYMENA_PYRIFORMIS_IGC50_MOL/L_TEST_PRED>
-

>  <VISCOSITY_CP_CP_TEST_PRED>
-

>  <VAPOR_PRESSURE_MMHG_TEST_PRED>
0.000018239

>  <WATER_SOLUBILITY_MOL/L_TEST_PRED>
2.04E-07

>  <ATMOSPHERIC_HYDROXYLATION_RATE_(AOH)_CM3/MOLECULE*SEC_OPERA_PRED>
7.00E-13

>  <BIOCONCENTRATION_FACTOR_OPERA_PRED>
22474

>  <BIODEGRADATION_HALF_LIFE_DAYS_DAYS_OPERA_PRED>
210.882

>  <BOILING_POINT_DEGC_OPERA_PRED>
328.821

>  <HENRYS_LAW_ATM-M3/MOLE_OPERA_PRED>
0.000291713

>  <OPERA_KM_DAYS_OPERA_PRED>
180.302

>  <OCTANOL_AIR_PARTITION_COEFF_LOGKOA_OPERA_PRED>
8.99413

>  <SOIL_ADSORPTION_COEFFICIENT_KOC_L/KG_OPERA_PRED>
60162.5

>  <OCTANOL_WATER_PARTITION_LOGP_OPERA_PRED>
6.11976

>  <MELTING_POINT_DEGC_OPERA_PRED>
105.974

>  <VAPOR_PRESSURE_MMHG_OPERA_PRED>
1.17E-05

>  <WATER_SOLUBILITY_MOL/L_OPERA_PRED>
2.45E-07

>  <Shape Index>
0.38889

>  <Molecular Flexibility>
0

>  <Molecular Complexity>
1.0143

>  <Electronegative Atoms>
8

>  <Stereo Centers>
6

>  <Rotatable Bonds>
0

>  <Rings Closures>
3

>  <Aromatic Rings>
0

>  <Aromatic Atoms>
0

>  <Amides>
0

>  <Amines>
0

>  <Aromatic Nitrogens>
0

>  <Shape Index 2>
0.38889

>  <Molecular Flexibility 2>
0

>  <Molecular Complexity 2>
1.0143

>  <Non-C/H Atoms>
8

>  <Electronegative Atoms 2>
8

>  <Stereo Centers 2>
6

>  <Rotatable Bonds 2>
0

>  <Rings Closures 2>
3

>  <Aromatic Rings 2>
0

>  <Aromatic Atoms 2>
0

>  <sp3-Atoms>
8

>  <Amides 2>
0

>  <Amines 2>
0

>  <Aromatic Nitrogens 2>
0

>  <Basic Nitrogens>
0

$$$$
