Perylene_2H12
Actelion Java MolfileCreator 2.0

  0  0  0  0  0  0              0 V3000
M  V30 BEGIN CTAB
M  V30 COUNTS 32 36 0 0 0
M  V30 BEGIN ATOM
M  V30 1 C 2.598 0.0 0.0 0
M  V30 2 C 1.732 -0.5 0.0 0
M  V30 3 C 3.4641 -0.4999 0.0 0
M  V30 4 C 2.598 0.9999 0.0 0
M  V30 5 C 1.732 -1.5 0.0 0
M  V30 6 C 0.866 0.0 0.0 0
M  V30 7 C 3.4641 -1.4999 0.0 0
M  V30 8 C 4.3301 0.0 0.0 0
M  V30 9 C 1.732 1.4999 0.0 0
M  V30 10 C 3.4641 1.4999 0.0 0
M  V30 11 C 2.598 -1.9999 0.0 0
M  V30 12 C 0.866 -2.0 0.0 0
M  V30 13 C 0.866 0.9999 0.0 0
M  V30 14 H 0.0 -0.5 0.0 0 MASS=2
M  V30 15 C 4.3301 -1.9999 0.0 0
M  V30 16 C 4.3301 0.9999 0.0 0
M  V30 17 H 5.1961 -0.5 0.0 0 MASS=2
M  V30 18 H 1.732 2.5 0.0 0 MASS=2
M  V30 19 H 3.4641 2.4999 0.0 0 MASS=2
M  V30 20 C 2.598 -3.0 0.0 0
M  V30 21 C 0.866 -3.0 0.0 0
M  V30 22 H 0.0 -1.5 0.0 0 MASS=2
M  V30 23 H 0.0 1.4999 0.0 0 MASS=2
M  V30 24 C 4.3301 -3.0 0.0 0
M  V30 25 H 5.1961 -1.4999 0.0 0 MASS=2
M  V30 26 H 5.1961 1.4999 0.0 0 MASS=2
M  V30 27 C 1.732 -3.5 0.0 0
M  V30 28 C 3.4641 -3.4999 0.0 0
M  V30 29 H 0.0 -3.5 0.0 0 MASS=2
M  V30 30 H 5.1961 -3.5 0.0 0 MASS=2
M  V30 31 H 1.732 -4.5 0.0 0 MASS=2
M  V30 32 H 3.4641 -4.5 0.0 0 MASS=2
M  V30 END ATOM
M  V30 BEGIN BOND
M  V30 1 1 1 2
M  V30 2 2 1 3
M  V30 3 1 1 4
M  V30 4 1 2 5
M  V30 5 2 2 6
M  V30 6 1 3 7
M  V30 7 1 3 8
M  V30 8 1 4 9
M  V30 9 2 4 10
M  V30 10 1 5 11
M  V30 11 2 5 12
M  V30 12 1 6 13
M  V30 13 1 6 14
M  V30 14 1 7 15
M  V30 15 2 8 16
M  V30 16 1 8 17
M  V30 17 1 9 18
M  V30 18 1 10 19
M  V30 19 1 11 20
M  V30 20 1 12 21
M  V30 21 1 12 22
M  V30 22 1 13 23
M  V30 23 2 15 24
M  V30 24 1 15 25
M  V30 25 1 16 26
M  V30 26 1 20 27
M  V30 27 2 20 28
M  V30 28 1 21 29
M  V30 29 1 24 30
M  V30 30 1 27 31
M  V30 31 1 28 32
M  V30 32 2 7 11
M  V30 33 2 9 13
M  V30 34 1 10 16
M  V30 35 2 21 27
M  V30 36 1 24 28
M  V30 END BOND
M  V30 END CTAB
M  END
>  <Order (spectra)>
1

>  <NAME>
Perylene_2H12

>  <Molecular Formula>
C20D12

>  <Monoisotopic Mass>
264.168

>  <SMILES>
[2H]C1=C([2H])C2=C3C(=C1[2H])C1=C([2H])C([2H])=C([2H])C4=C1C(=C([2H])C([2H])=C4[2H])C3=C([2H])C([2H])=C2[2H]

>  <InChI>
InChI=1S/C20H12/c1-5-13-6-2-11-17-18-12-4-8-14-7-3-10-16(20(14)18)15(9-1)19(13)17/h1-12H/i1D,2D,3D,4D,5D,6D,7D,8D,9D,10D,11D,12D

>  <InChIKey>
CSHWQDPOILHKBI-AQZSQYOVSA-N

>  <Kingdom>
Organic compounds

>  <Superclass>
Benzenoids

>  <Class>
Phenanthrenes and derivatives

>  <Subclass>


>  <Parent Level 1>
Phenanthrenes and derivatives

>  <Parent Level 2>


>  <Parent Level 3>


>  <cLogP>
5.7072

>  <cLogS>
-7.914

>  <Druglikeness>
-2.1841

>  <NP-class probability>
0.35

>  <SmilesFragFp 3>


>  <MS_READY_SMILES>
C1=CC2=C3C(=C1)C1=CC=CC4=C1C(=CC=C4)C3=CC=C2

>  <MS_READY_InChI>
InChI=1S/C20H12/c1-5-13-6-2-11-17-18-12-4-8-14-7-3-10-16(20(14)18)15(9-1)19(13)17/h1-12H

>  <QSAR_READY_SMILES>
C1=CC2=C3C(=C1)C1=CC=CC4=C1C(=CC=C4)C3=CC=C2

>  <QSAR_READY_InChI>
InChI=1S/C20H12/c1-5-13-6-2-11-17-18-12-4-8-14-7-3-10-16(20(14)18)15(9-1)19(13)17/h1-12H

>  <DTXSID>
DTXSID60934397

>  <DTXCID>
DTXCID601363045

>  <CASRN>
1520-96-3

>  <EXPOCAST_MEDIAN_EXPOSURE_PREDICTION_MG/KG-BW/DAY>
-

>  <BIOCONCENTRATION_FACTOR_TEST_PRED>
-

>  <BOILING_POINT_DEGC_TEST_PRED>
-

>  <48HR_DAPHNIA_LC50_MOL/L_TEST_PRED>
-

>  <DENSITY_G/CM^3_TEST_PRED>
-

>  <DEVTOX_TEST_PRED>
-

>  <96HR_FATHEAD_MINNOW_MOL/L_TEST_PRED>
-

>  <FLASH_POINT_DEGC_TEST_PRED>
-

>  <MELTING_POINT_DEGC_TEST_PRED>
-

>  <AMES_MUTAGENICITY_TEST_PRED>
-

>  <ORAL_RAT_LD50_MOL/KG_TEST_PRED>
-

>  <SURFACE_TENSION_DYN/CM_TEST_PRED>
-

>  <THERMAL_CONDUCTIVITY_MW/(M*K)_TEST_PRED>
-

>  <TETRAHYMENA_PYRIFORMIS_IGC50_MOL/L_TEST_PRED>
-

>  <VISCOSITY_CP_CP_TEST_PRED>
-

>  <VAPOR_PRESSURE_MMHG_TEST_PRED>
-

>  <WATER_SOLUBILITY_MOL/L_TEST_PRED>
-

>  <ATMOSPHERIC_HYDROXYLATION_RATE_(AOH)_CM3/MOLECULE*SEC_OPERA_PRED>
3.45E-11

>  <BIOCONCENTRATION_FACTOR_OPERA_PRED>
910.302

>  <BIODEGRADATION_HALF_LIFE_DAYS_DAYS_OPERA_PRED>
895.527

>  <BOILING_POINT_DEGC_OPERA_PRED>
486.93

>  <HENRYS_LAW_ATM-M3/MOLE_OPERA_PRED>
1.06E-06

>  <OPERA_KM_DAYS_OPERA_PRED>
0.871916

>  <OCTANOL_AIR_PARTITION_COEFF_LOGKOA_OPERA_PRED>
10.3435

>  <SOIL_ADSORPTION_COEFFICIENT_KOC_L/KG_OPERA_PRED>
549080

>  <OCTANOL_WATER_PARTITION_LOGP_OPERA_PRED>
6.04911

>  <MELTING_POINT_DEGC_OPERA_PRED>
225.812

>  <VAPOR_PRESSURE_MMHG_OPERA_PRED>
5.24E-09

>  <WATER_SOLUBILITY_MOL/L_OPERA_PRED>
2.34E-09

$$$$
Perylene
Actelion Java MolfileCreator 2.0

  0  0  0  0  0  0              0 V3000
M  V30 BEGIN CTAB
M  V30 COUNTS 20 24 0 0 0
M  V30 BEGIN ATOM
M  V30 1 C 0.0 0.0 0.0 0
M  V30 2 C 0.0 -1.0 0.0 0
M  V30 3 C 0.866 0.4999 0.0 0
M  V30 4 C -0.866 0.4999 0.0 0
M  V30 5 C 0.866 -1.5 0.0 0
M  V30 6 C -0.866 -1.4999 0.0 0
M  V30 7 C 1.732 0.0 0.0 0
M  V30 8 C 0.866 1.4999 0.0 0
M  V30 9 C -1.732 0.0 0.0 0
M  V30 10 C -0.866 1.5 0.0 0
M  V30 11 C 1.732 -0.9999 0.0 0
M  V30 12 C 0.866 -2.5 0.0 0
M  V30 13 C -1.732 -0.9999 0.0 0
M  V30 14 C 2.598 0.4999 0.0 0
M  V30 15 C 0.0 2.0 0.0 0
M  V30 16 C 2.598 -1.4999 0.0 0
M  V30 17 C 1.732 -3.0 0.0 0
M  V30 18 C 3.4641 0.0 0.0 0
M  V30 19 C 2.598 -2.5 0.0 0
M  V30 20 C 3.4641 -0.9999 0.0 0
M  V30 END ATOM
M  V30 BEGIN BOND
M  V30 1 1 1 2
M  V30 2 2 1 3
M  V30 3 1 1 4
M  V30 4 1 2 5
M  V30 5 2 2 6
M  V30 6 1 3 7
M  V30 7 1 3 8
M  V30 8 1 4 9
M  V30 9 2 4 10
M  V30 10 1 5 11
M  V30 11 2 5 12
M  V30 12 1 6 13
M  V30 13 1 7 14
M  V30 14 2 8 15
M  V30 15 1 11 16
M  V30 16 1 12 17
M  V30 17 2 14 18
M  V30 18 1 16 19
M  V30 19 2 16 20
M  V30 20 2 7 11
M  V30 21 2 9 13
M  V30 22 1 10 15
M  V30 23 2 17 19
M  V30 24 1 18 20
M  V30 END BOND
M  V30 END CTAB
M  END
>  <Order (spectra)>
2

>  <NAME>
Perylene

>  <Molecular Formula>
C20H12

>  <Monoisotopic Mass>
252.0939

>  <SMILES>
C1=CC2=C3C(=C1)C1=CC=CC4=C1C(=CC=C4)C3=CC=C2

>  <InChI>
InChI=1S/C20H12/c1-5-13-6-2-11-17-18-12-4-8-14-7-3-10-16(20(14)18)15(9-1)19(13)17/h1-12H

>  <InChIKey>
CSHWQDPOILHKBI-UHFFFAOYSA-N

>  <Kingdom>
Organic compounds

>  <Superclass>
Benzenoids

>  <Class>
Phenanthrenes and derivatives

>  <Subclass>


>  <Parent Level 1>
Phenanthrenes and derivatives

>  <Parent Level 2>


>  <Parent Level 3>


>  <cLogP>
5.7072

>  <cLogS>
-7.914

>  <Druglikeness>
-2.1841

>  <NP-class probability>
1

>  <SmilesFragFp 3>


>  <MS_READY_SMILES>
C1=CC2=C3C(=C1)C1=CC=CC4=C1C(=CC=C4)C3=CC=C2

>  <MS_READY_InChI>
InChI=1S/C20H12/c1-5-13-6-2-11-17-18-12-4-8-14-7-3-10-16(20(14)18)15(9-1)19(13)17/h1-12H

>  <QSAR_READY_SMILES>
C1=CC2=C3C(=C1)C1=CC=CC4=C1C(=CC=C4)C3=CC=C2

>  <QSAR_READY_InChI>
InChI=1S/C20H12/c1-5-13-6-2-11-17-18-12-4-8-14-7-3-10-16(20(14)18)15(9-1)19(13)17/h1-12H

>  <DTXSID>
DTXSID4047753

>  <DTXCID>
DTXCID9027736

>  <CASRN>
198-55-0

>  <EXPOCAST_MEDIAN_EXPOSURE_PREDICTION_MG/KG-BW/DAY>
1.82E-06

>  <BIOCONCENTRATION_FACTOR_TEST_PRED>
724.436

>  <BOILING_POINT_DEGC_TEST_PRED>
480.019

>  <48HR_DAPHNIA_LC50_MOL/L_TEST_PRED>
7.14E-07

>  <DENSITY_G/CM^3_TEST_PRED>
1.275

>  <DEVTOX_TEST_PRED>
0.355

>  <96HR_FATHEAD_MINNOW_MOL/L_TEST_PRED>
2.14E-07

>  <FLASH_POINT_DEGC_TEST_PRED>
230.615

>  <MELTING_POINT_DEGC_TEST_PRED>
207.823

>  <AMES_MUTAGENICITY_TEST_PRED>
1.037

>  <ORAL_RAT_LD50_MOL/KG_TEST_PRED>
-

>  <SURFACE_TENSION_DYN/CM_TEST_PRED>
44.403

>  <THERMAL_CONDUCTIVITY_MW/(M*K)_TEST_PRED>
-

>  <TETRAHYMENA_PYRIFORMIS_IGC50_MOL/L_TEST_PRED>
3.44E-06

>  <VISCOSITY_CP_CP_TEST_PRED>
-

>  <VAPOR_PRESSURE_MMHG_TEST_PRED>
4.49E-09

>  <WATER_SOLUBILITY_MOL/L_TEST_PRED>
7.74E-09

>  <ATMOSPHERIC_HYDROXYLATION_RATE_(AOH)_CM3/MOLECULE*SEC_OPERA_PRED>
3.45E-11

>  <BIOCONCENTRATION_FACTOR_OPERA_PRED>
910.302

>  <BIODEGRADATION_HALF_LIFE_DAYS_DAYS_OPERA_PRED>
895.527

>  <BOILING_POINT_DEGC_OPERA_PRED>
486.93

>  <HENRYS_LAW_ATM-M3/MOLE_OPERA_PRED>
1.06E-06

>  <OPERA_KM_DAYS_OPERA_PRED>
0.871916

>  <OCTANOL_AIR_PARTITION_COEFF_LOGKOA_OPERA_PRED>
10.3435

>  <SOIL_ADSORPTION_COEFFICIENT_KOC_L/KG_OPERA_PRED>
549080

>  <OCTANOL_WATER_PARTITION_LOGP_OPERA_PRED>
6.04911

>  <MELTING_POINT_DEGC_OPERA_PRED>
225.812

>  <VAPOR_PRESSURE_MMHG_OPERA_PRED>
5.24E-09

>  <WATER_SOLUBILITY_MOL/L_OPERA_PRED>
2.34E-09

$$$$
Testosterone
Actelion Java MolfileCreator 2.0

  0  0  0  0  0  0              0 V3000
M  V30 BEGIN CTAB
M  V30 COUNTS 21 24 0 0 0
M  V30 BEGIN ATOM
M  V30 1 O 1.4931 5.9671 0.0 0
M  V30 2 C 1.3886 4.9726 0.0 0
M  V30 3 C 2.1976 4.3848 0.0 0
M  V30 4 C 0.4751 4.5658 0.0 0
M  V30 5 C 2.0931 3.3903 0.0 0
M  V30 6 C 0.3705 3.5713 0.0 0
M  V30 7 C 1.1796 2.9835 0.0 0 CFG=2
M  V30 8 C 2.9021 2.8025 0.0 0
M  V30 9 C 1.075 1.989 0.0 0 CFG=2
M  V30 10 C 0.266 2.5768 0.0 0
M  V30 11 C 2.7976 1.8079 0.0 0
M  V30 12 C 1.884 1.4012 0.0 0 CFG=1
M  V30 13 C 0.1615 1.5823 0.0 0
M  V30 14 C 1.7795 0.4067 0.0 0 CFG=1
M  V30 15 C 0.057 0.5877 0.0 0
M  V30 16 C 0.866 0.0 0.0 0 CFG=2
M  V30 17 C 2.4487 -0.3364 0.0 0
M  V30 18 C 0.9705 -0.9945 0.0 0 CFG=2
M  V30 19 C 0.0 -0.5 0.0 0
M  V30 20 C 1.9487 -1.2024 0.0 0
M  V30 21 O 0.2274 -1.6636 0.0 0
M  V30 END ATOM
M  V30 BEGIN BOND
M  V30 1 2 1 2
M  V30 2 1 2 3
M  V30 3 1 2 4
M  V30 4 2 3 5
M  V30 5 1 4 6
M  V30 6 1 7 5
M  V30 7 1 5 8
M  V30 8 1 9 7
M  V30 9 1 7 10 CFG=3
M  V30 10 1 8 11
M  V30 11 1 12 9
M  V30 12 1 9 13 CFG=3
M  V30 13 1 14 12
M  V30 14 1 13 15
M  V30 15 1 16 14
M  V30 16 1 14 17 CFG=3
M  V30 17 1 18 16
M  V30 18 1 16 19 CFG=3
M  V30 19 1 17 20
M  V30 20 1 18 21 CFG=3
M  V30 21 1 6 7
M  V30 22 1 12 11 CFG=1
M  V30 23 1 15 16
M  V30 24 1 18 20
M  V30 END BOND
M  V30 BEGIN COLLECTION
M  V30 MDLV30/STEABS ATOMS=(6 7 9 12 14 16 18)
M  V30 END COLLECTION
M  V30 END CTAB
M  END
>  <Order (spectra)>
369

>  <NAME>
Testosterone

>  <Molecular Formula>
C19H28O2

>  <Monoisotopic Mass>
288.20893

>  <SMILES>
C[C@]12CC[C@H]3[C@@H](CCC4=CC(=O)CC[C@]34C)[C@@H]1CC[C@@H]2O

>  <InChI>
InChI=1S/C19H28O2/c1-18-9-7-13(20)11-12(18)3-4-14-15-5-6-17(21)19(15,2)10-8-16(14)18/h11,14-17,21H,3-10H2,1-2H3/t14-,15+,16+,17-,18+,19+/m1/s1

>  <InChIKey>
MUMGGOZAMZWBJJ-DYKIIFRCSA-N

>  <Kingdom>
Organic compounds

>  <Superclass>
Lipids and lipid-like molecules

>  <Class>
Steroids and steroid derivatives

>  <Subclass>
Androstane steroids

>  <Parent Level 1>
Androgens and derivatives

>  <Parent Level 2>


>  <Parent Level 3>


>  <cLogP>
3.4962

>  <cLogS>
-4.061

>  <Druglikeness>
1.56

>  <NP-class probability>
0.76

>  <SmilesFragFp 3>


>  <MS_READY_SMILES>
CC12CCC3C(CCC4=CC(=O)CCC34C)C1CCC2O

>  <MS_READY_InChI>
InChI=1S/C19H28O2/c1-18-9-7-13(20)11-12(18)3-4-14-15-5-6-17(21)19(15,2)10-8-16(14)18/h11,14-17,21H,3-10H2,1-2H3

>  <QSAR_READY_SMILES>
CC12CCC3C(CCC4=CC(=O)CCC34C)C1CCC2O

>  <QSAR_READY_InChI>
InChI=1S/C19H28O2/c1-18-9-7-13(20)11-12(18)3-4-14-15-5-6-17(21)19(15,2)10-8-16(14)18/h11,14-17,21H,3-10H2,1-2H3

>  <DTXSID>
DTXSID8022371

>  <DTXCID>
DTXCID302371

>  <CASRN>
58-22-0

>  <EXPOCAST_MEDIAN_EXPOSURE_PREDICTION_MG/KG-BW/DAY>
-

>  <BIOCONCENTRATION_FACTOR_TEST_PRED>
80.5378

>  <BOILING_POINT_DEGC_TEST_PRED>
357.585

>  <48HR_DAPHNIA_LC50_MOL/L_TEST_PRED>
2.07E-05

>  <DENSITY_G/CM^3_TEST_PRED>
1.111

>  <DEVTOX_TEST_PRED>
1.04

>  <96HR_FATHEAD_MINNOW_MOL/L_TEST_PRED>
4.29E-06

>  <FLASH_POINT_DEGC_TEST_PRED>
192.036

>  <MELTING_POINT_DEGC_TEST_PRED>
149.177

>  <AMES_MUTAGENICITY_TEST_PRED>
-0.018

>  <ORAL_RAT_LD50_MOL/KG_TEST_PRED>
0.0135207

>  <SURFACE_TENSION_DYN/CM_TEST_PRED>
43.766

>  <THERMAL_CONDUCTIVITY_MW/(M*K)_TEST_PRED>
-

>  <TETRAHYMENA_PYRIFORMIS_IGC50_MOL/L_TEST_PRED>
-

>  <VISCOSITY_CP_CP_TEST_PRED>
-

>  <VAPOR_PRESSURE_MMHG_TEST_PRED>
2.45E-07

>  <WATER_SOLUBILITY_MOL/L_TEST_PRED>
0.000130317

>  <ATMOSPHERIC_HYDROXYLATION_RATE_(AOH)_CM3/MOLECULE*SEC_OPERA_PRED>
3.99E-11

>  <BIOCONCENTRATION_FACTOR_OPERA_PRED>
55.074

>  <BIODEGRADATION_HALF_LIFE_DAYS_DAYS_OPERA_PRED>
97.3688

>  <BOILING_POINT_DEGC_OPERA_PRED>
295.438

>  <HENRYS_LAW_ATM-M3/MOLE_OPERA_PRED>
7.05E-08

>  <OPERA_KM_DAYS_OPERA_PRED>
3.30417

>  <OCTANOL_AIR_PARTITION_COEFF_LOGKOA_OPERA_PRED>
10.9935

>  <SOIL_ADSORPTION_COEFFICIENT_KOC_L/KG_OPERA_PRED>
142142

>  <OCTANOL_WATER_PARTITION_LOGP_OPERA_PRED>
3.31807

>  <MELTING_POINT_DEGC_OPERA_PRED>
154.925

>  <VAPOR_PRESSURE_MMHG_OPERA_PRED>
1.61E-07

>  <WATER_SOLUBILITY_MOL/L_OPERA_PRED>
9.12E-05

$$$$
Spirodiclofen
Actelion Java MolfileCreator 2.0

  0  0  0  0  0  0              0 V3000
M  V30 BEGIN CTAB
M  V30 COUNTS 27 29 0 0 0
M  V30 BEGIN ATOM
M  V30 1 Cl 10.7493 -1.5415 0.0 0
M  V30 2 C 9.6314 -2.5481 0.0 0
M  V30 3 C 8.2008 -2.0832 0.0 0
M  V30 4 C 9.9442 -4.0195 0.0 0
M  V30 5 C 7.888 -0.6118 0.0 0
M  V30 6 C 7.1267 -3.0961 0.0 0
M  V30 7 C 8.8263 -5.0261 0.0 0
M  V30 8 C 8.8946 0.506 0.0 0
M  V30 9 C 6.5138 0.0 0.0 0
M  V30 10 C 7.3956 -4.5612 0.0 0
M  V30 11 Cl 9.139 -6.4975 0.0 0
M  V30 12 O 10.3906 0.3488 0.0 0
M  V30 13 O 8.1424 1.8088 0.0 0
M  V30 14 O 5.211 -0.7521 0.0 0
M  V30 15 C 6.671 1.496 0.0 0
M  V30 16 C 5.211 -2.2564 0.0 0
M  V30 17 C 6.9838 2.9674 0.0 0
M  V30 18 C 5.2403 1.0312 0.0 0
M  V30 19 O 6.426 -2.996 0.0 0
M  V30 20 C 3.9082 -3.0085 0.0 0
M  V30 21 C 5.8658 3.974 0.0 0
M  V30 22 C 4.1224 2.0377 0.0 0
M  V30 23 C 3.9082 -4.5128 0.0 0
M  V30 24 C 2.404 -3.0086 0.0 0
M  V30 25 C 3.1561 -1.7058 0.0 0
M  V30 26 C 4.4352 3.5092 0.0 0
M  V30 27 C 5.211 -5.265 0.0 0
M  V30 END ATOM
M  V30 BEGIN BOND
M  V30 1 1 1 2
M  V30 2 2 2 3
M  V30 3 1 2 4
M  V30 4 1 3 5
M  V30 5 1 3 6
M  V30 6 2 4 7
M  V30 7 1 5 8
M  V30 8 2 5 9
M  V30 9 2 6 10
M  V30 10 1 7 11
M  V30 11 2 8 12
M  V30 12 1 8 13
M  V30 13 1 9 14
M  V30 14 1 9 15
M  V30 15 1 14 16
M  V30 16 1 15 17
M  V30 17 1 15 18
M  V30 18 2 16 19
M  V30 19 1 16 20
M  V30 20 1 17 21
M  V30 21 1 18 22
M  V30 22 1 20 23
M  V30 23 1 20 24
M  V30 24 1 20 25
M  V30 25 1 21 26
M  V30 26 1 23 27
M  V30 27 1 7 10
M  V30 28 1 13 15
M  V30 29 1 22 26
M  V30 END BOND
M  V30 END CTAB
M  END
>  <Order (spectra)>
360

>  <NAME>
Spirodiclofen

>  <Molecular Formula>
C21H24O4Cl2

>  <Monoisotopic Mass>
410.105164

>  <SMILES>
CCC(C)(C)C(=O)OC1=C(C(=O)OC11CCCCC1)C1=CC=C(Cl)C=C1Cl

>  <InChI>
InChI=1S/C21H24Cl2O4/c1-4-20(2,3)19(25)26-17-16(14-9-8-13(22)12-15(14)23)18(24)27-21(17)10-6-5-7-11-21/h8-9,12H,4-7,10-11H2,1-3H3

>  <InChIKey>
DTDSAWVUFPGDMX-UHFFFAOYSA-N

>  <Kingdom>
Organic compounds

>  <Superclass>
Benzenoids

>  <Class>
Benzene and substituted derivatives

>  <Subclass>
Halobenzenes

>  <Parent Level 1>
Chlorobenzenes

>  <Parent Level 2>
Dichlorobenzenes

>  <Parent Level 3>


>  <cLogP>
5.2048

>  <cLogS>
-5.775

>  <Druglikeness>
-4.3535

>  <NP-class probability>
0.67

>  <SmilesFragFp 3>


>  <MS_READY_SMILES>
CCC(C)(C)C(=O)OC1=C(C(=O)OC11CCCCC1)C1=CC=C(Cl)C=C1Cl

>  <MS_READY_InChI>
InChI=1S/C21H24Cl2O4/c1-4-20(2,3)19(25)26-17-16(14-9-8-13(22)12-15(14)23)18(24)27-21(17)10-6-5-7-11-21/h8-9,12H,4-7,10-11H2,1-3H3

>  <QSAR_READY_SMILES>
CCC(C)(C)C(=O)OC1=C(C(=O)OC11CCCCC1)C1=CC=C(Cl)C=C1Cl

>  <QSAR_READY_InChI>
InChI=1S/C21H24Cl2O4/c1-4-20(2,3)19(25)26-17-16(14-9-8-13(22)12-15(14)23)18(24)27-21(17)10-6-5-7-11-21/h8-9,12H,4-7,10-11H2,1-3H3

>  <DTXSID>
DTXSID6034928

>  <DTXCID>
DTXCID201334167

>  <CASRN>
148477-71-8

>  <EXPOCAST_MEDIAN_EXPOSURE_PREDICTION_MG/KG-BW/DAY>
2.22E-07

>  <BIOCONCENTRATION_FACTOR_TEST_PRED>
-

>  <BOILING_POINT_DEGC_TEST_PRED>
-

>  <48HR_DAPHNIA_LC50_MOL/L_TEST_PRED>
-

>  <DENSITY_G/CM^3_TEST_PRED>
-

>  <DEVTOX_TEST_PRED>
-

>  <96HR_FATHEAD_MINNOW_MOL/L_TEST_PRED>
-

>  <FLASH_POINT_DEGC_TEST_PRED>
-

>  <MELTING_POINT_DEGC_TEST_PRED>
-

>  <AMES_MUTAGENICITY_TEST_PRED>
-

>  <ORAL_RAT_LD50_MOL/KG_TEST_PRED>
-

>  <SURFACE_TENSION_DYN/CM_TEST_PRED>
-

>  <THERMAL_CONDUCTIVITY_MW/(M*K)_TEST_PRED>
-

>  <TETRAHYMENA_PYRIFORMIS_IGC50_MOL/L_TEST_PRED>
-

>  <VISCOSITY_CP_CP_TEST_PRED>
-

>  <VAPOR_PRESSURE_MMHG_TEST_PRED>
-

>  <WATER_SOLUBILITY_MOL/L_TEST_PRED>
-

>  <ATMOSPHERIC_HYDROXYLATION_RATE_(AOH)_CM3/MOLECULE*SEC_OPERA_PRED>
2.30E-11

>  <BIOCONCENTRATION_FACTOR_OPERA_PRED>
294.021

>  <BIODEGRADATION_HALF_LIFE_DAYS_DAYS_OPERA_PRED>
3.3619

>  <BOILING_POINT_DEGC_OPERA_PRED>
389.59

>  <HENRYS_LAW_ATM-M3/MOLE_OPERA_PRED>
1.27E-08

>  <OPERA_KM_DAYS_OPERA_PRED>
1.29859

>  <OCTANOL_AIR_PARTITION_COEFF_LOGKOA_OPERA_PRED>
11.6984

>  <SOIL_ADSORPTION_COEFFICIENT_KOC_L/KG_OPERA_PRED>
17839.2

>  <OCTANOL_WATER_PARTITION_LOGP_OPERA_PRED>
4.65223

>  <MELTING_POINT_DEGC_OPERA_PRED>
105.572

>  <VAPOR_PRESSURE_MMHG_OPERA_PRED>
1.57E-08

>  <WATER_SOLUBILITY_MOL/L_OPERA_PRED>
1.22E-07

$$$$
Spiromesifen
Actelion Java MolfileCreator 2.0

  0  0  0  0  0  0              0 V3000
M  V30 BEGIN CTAB
M  V30 COUNTS 27 29 0 0 0
M  V30 BEGIN ATOM
M  V30 1 O 4.9535 -2.6159 0.0 0
M  V30 2 C 4.5467 -1.7024 0.0 0
M  V30 3 O 5.0467 -0.8364 0.0 0
M  V30 4 C 3.5686 -1.4945 0.0 0
M  V30 5 C 4.3776 -0.0932 0.0 0
M  V30 6 C 2.8254 -2.1636 0.0 0
M  V30 7 C 3.4641 -0.5 0.0 0
M  V30 8 C 5.2911 0.3134 0.0 0
M  V30 9 C 3.7085 0.6498 0.0 0
M  V30 10 C 1.8744 -1.8546 0.0 0
M  V30 11 C 3.0333 -3.1418 0.0 0
M  V30 12 O 2.598 0.0 0.0 0
M  V30 13 C 5.1866 1.3079 0.0 0
M  V30 14 C 4.2085 1.5159 0.0 0
M  V30 15 C 1.1312 -2.5237 0.0 0
M  V30 16 C 1.6665 -0.8764 0.0 0
M  V30 17 C 2.2902 -3.8109 0.0 0
M  V30 18 C 3.9844 -3.4508 0.0 0
M  V30 19 C 2.598 1.0 0.0 0
M  V30 20 C 1.3391 -3.5019 0.0 0
M  V30 21 O 1.732 1.4999 0.0 0
M  V30 22 C 3.4641 1.5 0.0 0
M  V30 23 C 0.596 -4.171 0.0 0
M  V30 24 C 3.4641 2.5 0.0 0
M  V30 25 C 2.4641 2.5 0.0 0
M  V30 26 C 3.4641 3.5 0.0 0
M  V30 27 C 4.4641 2.5 0.0 0
M  V30 END ATOM
M  V30 BEGIN BOND
M  V30 1 2 1 2
M  V30 2 1 2 3
M  V30 3 1 2 4
M  V30 4 1 3 5
M  V30 5 1 4 6
M  V30 6 2 4 7
M  V30 7 1 5 8
M  V30 8 1 5 9
M  V30 9 2 6 10
M  V30 10 1 6 11
M  V30 11 1 7 12
M  V30 12 1 8 13
M  V30 13 1 9 14
M  V30 14 1 10 15
M  V30 15 1 10 16
M  V30 16 2 11 17
M  V30 17 1 11 18
M  V30 18 1 12 19
M  V30 19 2 15 20
M  V30 20 2 19 21
M  V30 21 1 19 22
M  V30 22 1 20 23
M  V30 23 1 22 24
M  V30 24 1 24 25
M  V30 25 1 24 26
M  V30 26 1 24 27
M  V30 27 1 5 7
M  V30 28 1 13 14
M  V30 29 1 17 20
M  V30 END BOND
M  V30 END CTAB
M  END
>  <Order (spectra)>
361

>  <NAME>
Spiromesifen

>  <Molecular Formula>
C23H30O4

>  <Monoisotopic Mass>
370.21441

>  <SMILES>
CC1=CC(C)=C(C2=C(OC(=O)CC(C)(C)C)C3(CCCC3)OC2=O)C(C)=C1

>  <InChI>
InChI=1S/C23H30O4/c1-14-11-15(2)18(16(3)12-14)19-20(26-17(24)13-22(4,5)6)23(27-21(19)25)9-7-8-10-23/h11-12H,7-10,13H2,1-6H3

>  <InChIKey>
GOLXNESZZPUPJE-UHFFFAOYSA-N

>  <Kingdom>
Organic compounds

>  <Superclass>
Lipids and lipid-like molecules

>  <Class>
Fatty Acyls

>  <Subclass>
Fatty acid esters

>  <Parent Level 1>
Fatty acid esters

>  <Parent Level 2>


>  <Parent Level 3>


>  <cLogP>
4.6825

>  <cLogS>
-5.065

>  <Druglikeness>
-5.6075

>  <NP-class probability>
0.97

>  <SmilesFragFp 3>


>  <MS_READY_SMILES>
CC1=CC(C)=C(C2=C(OC(=O)CC(C)(C)C)C3(CCCC3)OC2=O)C(C)=C1

>  <MS_READY_InChI>
InChI=1S/C23H30O4/c1-14-11-15(2)18(16(3)12-14)19-20(26-17(24)13-22(4,5)6)23(27-21(19)25)9-7-8-10-23/h11-12H,7-10,13H2,1-6H3

>  <QSAR_READY_SMILES>
CC1=CC(C)=C(C2=C(OC(=O)CC(C)(C)C)C3(CCCC3)OC2=O)C(C)=C1

>  <QSAR_READY_InChI>
InChI=1S/C23H30O4/c1-14-11-15(2)18(16(3)12-14)19-20(26-17(24)13-22(4,5)6)23(27-21(19)25)9-7-8-10-23/h11-12H,7-10,13H2,1-6H3

>  <DTXSID>
DTXSID1034929

>  <DTXCID>
DTXCID9014929

>  <CASRN>
283594-90-1

>  <EXPOCAST_MEDIAN_EXPOSURE_PREDICTION_MG/KG-BW/DAY>
1.03E-05

>  <BIOCONCENTRATION_FACTOR_TEST_PRED>
-

>  <BOILING_POINT_DEGC_TEST_PRED>
423.035

>  <48HR_DAPHNIA_LC50_MOL/L_TEST_PRED>
7.67E-07

>  <DENSITY_G/CM^3_TEST_PRED>
1.054

>  <DEVTOX_TEST_PRED>
0.677

>  <96HR_FATHEAD_MINNOW_MOL/L_TEST_PRED>
1.57E-06

>  <FLASH_POINT_DEGC_TEST_PRED>
214.192

>  <MELTING_POINT_DEGC_TEST_PRED>
120.916

>  <AMES_MUTAGENICITY_TEST_PRED>
0.338

>  <ORAL_RAT_LD50_MOL/KG_TEST_PRED>
0.00639735

>  <SURFACE_TENSION_DYN/CM_TEST_PRED>
-

>  <THERMAL_CONDUCTIVITY_MW/(M*K)_TEST_PRED>
-

>  <TETRAHYMENA_PYRIFORMIS_IGC50_MOL/L_TEST_PRED>
-

>  <VISCOSITY_CP_CP_TEST_PRED>
-

>  <VAPOR_PRESSURE_MMHG_TEST_PRED>
2.19E-08

>  <WATER_SOLUBILITY_MOL/L_TEST_PRED>
3.90E-06

>  <ATMOSPHERIC_HYDROXYLATION_RATE_(AOH)_CM3/MOLECULE*SEC_OPERA_PRED>
3.26E-11

>  <BIOCONCENTRATION_FACTOR_OPERA_PRED>
153.788

>  <BIODEGRADATION_HALF_LIFE_DAYS_DAYS_OPERA_PRED>
3.35752

>  <BOILING_POINT_DEGC_OPERA_PRED>
368.451

>  <HENRYS_LAW_ATM-M3/MOLE_OPERA_PRED>
1.45E-08

>  <OPERA_KM_DAYS_OPERA_PRED>
1.0732

>  <OCTANOL_AIR_PARTITION_COEFF_LOGKOA_OPERA_PRED>
11.7354

>  <SOIL_ADSORPTION_COEFFICIENT_KOC_L/KG_OPERA_PRED>
5511.98

>  <OCTANOL_WATER_PARTITION_LOGP_OPERA_PRED>
4.54555

>  <MELTING_POINT_DEGC_OPERA_PRED>
115.74

>  <VAPOR_PRESSURE_MMHG_OPERA_PRED>
3.84E-07

>  <WATER_SOLUBILITY_MOL/L_OPERA_PRED>
3.55E-07

$$$$
Spirotetramat
Actelion Java MolfileCreator 2.0

  0  0  0  0  0  0              0 V3000
M  V30 BEGIN CTAB
M  V30 COUNTS 27 29 0 0 0
M  V30 BEGIN ATOM
M  V30 1 O 10.3906 0.3488 0.0 0
M  V30 2 C 8.8946 0.506 0.0 0
M  V30 3 N 8.1424 1.8088 0.0 0
M  V30 4 C 7.888 -0.6118 0.0 0
M  V30 5 C 6.671 1.496 0.0 0
M  V30 6 C 8.2007 -2.0832 0.0 0
M  V30 7 C 6.5137 0.0 0.0 0
M  V30 8 C 6.9837 2.9674 0.0 0
M  V30 9 C 5.2403 1.0312 0.0 0
M  V30 10 C 9.6314 -2.5481 0.0 0
M  V30 11 C 7.1267 -3.0961 0.0 0
M  V30 12 O 5.211 -0.7521 0.0 0
M  V30 13 C 5.8658 3.974 0.0 0
M  V30 14 C 4.1224 2.0377 0.0 0
M  V30 15 C 9.9442 -4.0195 0.0 0
M  V30 16 C 10.7493 -1.5415 0.0 0
M  V30 17 C 7.3956 -4.5612 0.0 0
M  V30 18 C 5.211 -2.2564 0.0 0
M  V30 19 C 4.4352 3.5091 0.0 0
M  V30 20 C 8.8263 -5.0261 0.0 0
M  V30 21 C 6.2777 -5.5678 0.0 0
M  V30 22 O 6.426 -2.996 0.0 0
M  V30 23 O 3.9082 -3.0085 0.0 0
M  V30 24 O 3.3173 4.5157 0.0 0
M  V30 25 C 2.6055 -2.2564 0.0 0
M  V30 26 C 1.8866 4.0509 0.0 0
M  V30 27 C 2.6055 -0.7521 0.0 0
M  V30 END ATOM
M  V30 BEGIN BOND
M  V30 1 2 1 2
M  V30 2 1 2 3
M  V30 3 1 2 4
M  V30 4 1 3 5
M  V30 5 1 4 6
M  V30 6 2 4 7
M  V30 7 1 5 8
M  V30 8 1 5 9
M  V30 9 2 6 10
M  V30 10 1 6 11
M  V30 11 1 7 12
M  V30 12 1 8 13
M  V30 13 1 9 14
M  V30 14 1 10 15
M  V30 15 1 10 16
M  V30 16 2 11 17
M  V30 17 1 12 18
M  V30 18 1 13 19
M  V30 19 2 15 20
M  V30 20 1 17 21
M  V30 21 2 18 22
M  V30 22 1 18 23
M  V30 23 1 19 24
M  V30 24 1 23 25
M  V30 25 1 24 26
M  V30 26 1 25 27
M  V30 27 1 5 7
M  V30 28 1 14 19
M  V30 29 1 17 20
M  V30 END BOND
M  V30 END CTAB
M  END
>  <Order (spectra)>
362

>  <NAME>
Spirotetramat

>  <Molecular Formula>
C21H27NO5

>  <Monoisotopic Mass>
373.188924

>  <SMILES>
CCOC(=O)OC1=C(C(=O)NC12CCC(CC2)OC)C3=C(C=CC(=C3)C)C

>  <InChI>
InChI=1S/C21H27NO5/c1-5-26-20(24)27-18-17(16-12-13(2)6-7-14(16)3)19(23)22-21(18)10-8-15(25-4)9-11-21/h6-7,12,15H,5,8-11H2,1-4H3,(H,22,23)

>  <InChIKey>
CLSVJBIHYWPGQY-UHFFFAOYSA-N

>  <Kingdom>
Organic compounds

>  <Superclass>
Benzenoids

>  <Class>
Benzene and substituted derivatives

>  <Subclass>
Xylenes

>  <Parent Level 1>
p-Xylenes

>  <Parent Level 2>


>  <Parent Level 3>


>  <cLogP>
3.0295

>  <cLogS>
-4.322

>  <Druglikeness>
-0.3375

>  <NP-class probability>
0.61

>  <SmilesFragFp 3>


>  <MS_READY_SMILES>
-

>  <MS_READY_InChI>


>  <QSAR_READY_SMILES>
-

>  <QSAR_READY_InChI>


>  <DTXSID>
-

>  <DTXCID>
-

>  <CASRN>
-

>  <EXPOCAST_MEDIAN_EXPOSURE_PREDICTION_MG/KG-BW/DAY>
-

>  <BIOCONCENTRATION_FACTOR_TEST_PRED>
-

>  <BOILING_POINT_DEGC_TEST_PRED>
-

>  <48HR_DAPHNIA_LC50_MOL/L_TEST_PRED>
-

>  <DENSITY_G/CM^3_TEST_PRED>
-

>  <DEVTOX_TEST_PRED>
-

>  <96HR_FATHEAD_MINNOW_MOL/L_TEST_PRED>
-

>  <FLASH_POINT_DEGC_TEST_PRED>
-

>  <MELTING_POINT_DEGC_TEST_PRED>
-

>  <AMES_MUTAGENICITY_TEST_PRED>
-

>  <ORAL_RAT_LD50_MOL/KG_TEST_PRED>
-

>  <SURFACE_TENSION_DYN/CM_TEST_PRED>
-

>  <THERMAL_CONDUCTIVITY_MW/(M*K)_TEST_PRED>
-

>  <TETRAHYMENA_PYRIFORMIS_IGC50_MOL/L_TEST_PRED>
-

>  <VISCOSITY_CP_CP_TEST_PRED>
-

>  <VAPOR_PRESSURE_MMHG_TEST_PRED>
-

>  <WATER_SOLUBILITY_MOL/L_TEST_PRED>
-

>  <ATMOSPHERIC_HYDROXYLATION_RATE_(AOH)_CM3/MOLECULE*SEC_OPERA_PRED>
-

>  <BIOCONCENTRATION_FACTOR_OPERA_PRED>
-

>  <BIODEGRADATION_HALF_LIFE_DAYS_DAYS_OPERA_PRED>
-

>  <BOILING_POINT_DEGC_OPERA_PRED>
-

>  <HENRYS_LAW_ATM-M3/MOLE_OPERA_PRED>
-

>  <OPERA_KM_DAYS_OPERA_PRED>
-

>  <OCTANOL_AIR_PARTITION_COEFF_LOGKOA_OPERA_PRED>
-

>  <SOIL_ADSORPTION_COEFFICIENT_KOC_L/KG_OPERA_PRED>
-

>  <OCTANOL_WATER_PARTITION_LOGP_OPERA_PRED>
-

>  <MELTING_POINT_DEGC_OPERA_PRED>
-

>  <VAPOR_PRESSURE_MMHG_OPERA_PRED>
-

>  <WATER_SOLUBILITY_MOL/L_OPERA_PRED>
-

$$$$
17-alpha-Ethynylestradiol
Actelion Java MolfileCreator 2.0

  0  0  0  0  0  0              0 V3000
M  V30 BEGIN CTAB
M  V30 COUNTS 22 25 0 0 0
M  V30 BEGIN ATOM
M  V30 1 O 1.4931 5.9671 0.0 0
M  V30 2 C 1.3886 4.9726 0.0 0
M  V30 3 C 2.1976 4.3848 0.0 0
M  V30 4 C 0.4751 4.5658 0.0 0
M  V30 5 C 2.0931 3.3903 0.0 0
M  V30 6 C 0.3705 3.5713 0.0 0
M  V30 7 C 1.1796 2.9835 0.0 0
M  V30 8 C 2.9021 2.8025 0.0 0
M  V30 9 C 1.075 1.989 0.0 0 CFG=2
M  V30 10 C 2.7976 1.8079 0.0 0
M  V30 11 C 1.884 1.4012 0.0 0 CFG=1
M  V30 12 C 0.1615 1.5823 0.0 0
M  V30 13 C 1.7795 0.4067 0.0 0 CFG=1
M  V30 14 C 0.057 0.5877 0.0 0
M  V30 15 C 0.866 0.0 0.0 0 CFG=2
M  V30 16 C 2.4487 -0.3364 0.0 0
M  V30 17 C 0.9705 -0.9945 0.0 0 CFG=2
M  V30 18 C 0.0 -0.5 0.0 0
M  V30 19 C 1.9487 -1.2024 0.0 0
M  V30 20 O 1.2293 -1.9604 0.0 0
M  V30 21 C 0.2274 -1.6636 0.0 0
M  V30 22 C -0.5157 -2.3327 0.0 0
M  V30 END ATOM
M  V30 BEGIN BOND
M  V30 1 1 1 2
M  V30 2 2 2 3
M  V30 3 1 2 4
M  V30 4 1 3 5
M  V30 5 2 4 6
M  V30 6 2 5 7
M  V30 7 1 5 8
M  V30 8 1 9 7
M  V30 9 1 8 10
M  V30 10 1 11 9
M  V30 11 1 9 12 CFG=3
M  V30 12 1 13 11
M  V30 13 1 12 14
M  V30 14 1 15 13
M  V30 15 1 13 16 CFG=3
M  V30 16 1 17 15
M  V30 17 1 15 18 CFG=3
M  V30 18 1 16 19
M  V30 19 1 17 20 CFG=3
M  V30 20 1 17 21
M  V30 21 3 21 22
M  V30 22 1 6 7
M  V30 23 1 11 10 CFG=1
M  V30 24 1 14 15
M  V30 25 1 17 19
M  V30 END BOND
M  V30 BEGIN COLLECTION
M  V30 MDLV30/STEABS ATOMS=(5 9 11 13 15 17)
M  V30 END COLLECTION
M  V30 END CTAB
M  END
>  <Order (spectra)>
363

>  <NAME>
17-alpha-Ethynylestradiol

>  <Molecular Formula>
C20H24O2

>  <Monoisotopic Mass>
296.17763

>  <SMILES>
[H][C@@]12CC[C@@](O)(C#C)[C@@]1(C)CC[C@]1([H])C3=C(CC[C@@]21[H])C=C(O)C=C3

>  <InChI>
InChI=1S/C20H24O2/c1-3-20(22)11-9-18-17-6-4-13-12-14(21)5-7-15(13)16(17)8-10-19(18,20)2/h1,5,7,12,16-18,21-22H,4,6,8-11H2,2H3/t16-,17+,18+,19+,20+/m1/s1

>  <InChIKey>
BFPYWIDHMRZLRN-SLHNCBLASA-N

>  <Kingdom>
Organic compounds

>  <Superclass>
Lipids and lipid-like molecules

>  <Class>
Steroids and steroid derivatives

>  <Subclass>
Estrane steroids

>  <Parent Level 1>
Estrogens and derivatives

>  <Parent Level 2>


>  <Parent Level 3>


>  <cLogP>
3.7955

>  <cLogS>
-4.453

>  <Druglikeness>
0.68189

>  <NP-class probability>
0.97

>  <SmilesFragFp 3>


>  <MS_READY_SMILES>
CC12CCC3C(CCC4=C3C=CC(O)=C4)C1CCC2(O)C#C

>  <MS_READY_InChI>
InChI=1S/C20H24O2/c1-3-20(22)11-9-18-17-6-4-13-12-14(21)5-7-15(13)16(17)8-10-19(18,20)2/h1,5,7,12,16-18,21-22H,4,6,8-11H2,2H3

>  <QSAR_READY_SMILES>
CC12CCC3C(CCC4=C3C=CC(O)=C4)C1CCC2(O)C#C

>  <QSAR_READY_InChI>
InChI=1S/C20H24O2/c1-3-20(22)11-9-18-17-6-4-13-12-14(21)5-7-15(13)16(17)8-10-19(18,20)2/h1,5,7,12,16-18,21-22H,4,6,8-11H2,2H3

>  <DTXSID>
DTXSID5020576

>  <DTXCID>
DTXCID70576

>  <CASRN>
57-63-6

>  <EXPOCAST_MEDIAN_EXPOSURE_PREDICTION_MG/KG-BW/DAY>
-

>  <BIOCONCENTRATION_FACTOR_TEST_PRED>
-

>  <BOILING_POINT_DEGC_TEST_PRED>
383.097

>  <48HR_DAPHNIA_LC50_MOL/L_TEST_PRED>
-

>  <DENSITY_G/CM^3_TEST_PRED>
1.156

>  <DEVTOX_TEST_PRED>
1

>  <96HR_FATHEAD_MINNOW_MOL/L_TEST_PRED>
3.41E-06

>  <FLASH_POINT_DEGC_TEST_PRED>
203.389

>  <MELTING_POINT_DEGC_TEST_PRED>
181.314

>  <AMES_MUTAGENICITY_TEST_PRED>
0

>  <ORAL_RAT_LD50_MOL/KG_TEST_PRED>
0.00797995

>  <SURFACE_TENSION_DYN/CM_TEST_PRED>
46.83

>  <THERMAL_CONDUCTIVITY_MW/(M*K)_TEST_PRED>
144.184

>  <TETRAHYMENA_PYRIFORMIS_IGC50_MOL/L_TEST_PRED>
6.03E-06

>  <VISCOSITY_CP_CP_TEST_PRED>
-

>  <VAPOR_PRESSURE_MMHG_TEST_PRED>
1.27E-08

>  <WATER_SOLUBILITY_MOL/L_TEST_PRED>
1.26E-05

>  <ATMOSPHERIC_HYDROXYLATION_RATE_(AOH)_CM3/MOLECULE*SEC_OPERA_PRED>
2.83E-11

>  <BIOCONCENTRATION_FACTOR_OPERA_PRED>
183.855

>  <BIODEGRADATION_HALF_LIFE_DAYS_DAYS_OPERA_PRED>
97.7868

>  <BOILING_POINT_DEGC_OPERA_PRED>
390.395

>  <HENRYS_LAW_ATM-M3/MOLE_OPERA_PRED>
9.44E-08

>  <OPERA_KM_DAYS_OPERA_PRED>
0.622234

>  <OCTANOL_AIR_PARTITION_COEFF_LOGKOA_OPERA_PRED>
9.19849

>  <SOIL_ADSORPTION_COEFFICIENT_KOC_L/KG_OPERA_PRED>
515331

>  <OCTANOL_WATER_PARTITION_LOGP_OPERA_PRED>
3.6691

>  <MELTING_POINT_DEGC_OPERA_PRED>
183.064

>  <VAPOR_PRESSURE_MMHG_OPERA_PRED>
7.38E-10

>  <WATER_SOLUBILITY_MOL/L_OPERA_PRED>
3.94E-05

$$$$
Bisphenol A
Actelion Java MolfileCreator 2.0

  0  0  0  0  0  0              0 V3000
M  V30 BEGIN CTAB
M  V30 COUNTS 17 18 0 0 0
M  V30 BEGIN ATOM
M  V30 1 O 6.4952 -3.0 0.0 0
M  V30 2 C 5.1961 -2.25 0.0 0
M  V30 3 C 5.1961 -0.75 0.0 0
M  V30 4 C 3.8971 -3.0 0.0 0
M  V30 5 C 3.8971 0.0 0.0 0
M  V30 6 C 2.598 -2.25 0.0 0
M  V30 7 C 2.598 -0.75 0.0 0
M  V30 8 C 1.299 0.0 0.0 0
M  V30 9 C 0.0 -0.75 0.0 0
M  V30 10 C 2.049 1.299 0.0 0
M  V30 11 C 0.549 1.299 0.0 0
M  V30 12 C -1.299 0.0 0.0 0
M  V30 13 C 0.0 -2.25 0.0 0
M  V30 14 C -2.598 -0.75 0.0 0
M  V30 15 C -1.299 -3.0 0.0 0
M  V30 16 C -2.598 -2.25 0.0 0
M  V30 17 O -3.8971 -3.0 0.0 0
M  V30 END ATOM
M  V30 BEGIN BOND
M  V30 1 1 1 2
M  V30 2 2 2 3
M  V30 3 1 2 4
M  V30 4 1 3 5
M  V30 5 2 4 6
M  V30 6 2 5 7
M  V30 7 1 7 8
M  V30 8 1 8 9
M  V30 9 1 8 10
M  V30 10 1 8 11
M  V30 11 2 9 12
M  V30 12 1 9 13
M  V30 13 1 12 14
M  V30 14 2 13 15
M  V30 15 2 14 16
M  V30 16 1 16 17
M  V30 17 1 6 7
M  V30 18 1 15 16
M  V30 END BOND
M  V30 END CTAB
M  END
>  <Order (spectra)>
364

>  <NAME>
Bisphenol A

>  <Molecular Formula>
C15H16O2

>  <Monoisotopic Mass>
228.11503

>  <SMILES>
CC(C)(C1=CC=C(O)C=C1)C1=CC=C(O)C=C1

>  <InChI>
InChI=1S/C15H16O2/c1-15(2,11-3-7-13(16)8-4-11)12-5-9-14(17)10-6-12/h3-10,16-17H,1-2H3

>  <InChIKey>
IISBACLAFKSPIT-UHFFFAOYSA-N

>  <Kingdom>
Organic compounds

>  <Superclass>
Benzenoids

>  <Class>
Benzene and substituted derivatives

>  <Subclass>
Diphenylmethanes

>  <Parent Level 1>
Bisphenols

>  <Parent Level 2>


>  <Parent Level 3>


>  <cLogP>
2.8655

>  <cLogS>
-2.297

>  <Druglikeness>
-3.2442

>  <NP-class probability>
0.71

>  <SmilesFragFp 3>


>  <MS_READY_SMILES>
CC(C)(C1=CC=C(O)C=C1)C1=CC=C(O)C=C1

>  <MS_READY_InChI>
InChI=1S/C15H16O2/c1-15(2,11-3-7-13(16)8-4-11)12-5-9-14(17)10-6-12/h3-10,16-17H,1-2H3

>  <QSAR_READY_SMILES>
CC(C)(C1=CC=C(O)C=C1)C1=CC=C(O)C=C1

>  <QSAR_READY_InChI>
InChI=1S/C15H16O2/c1-15(2,11-3-7-13(16)8-4-11)12-5-9-14(17)10-6-12/h3-10,16-17H,1-2H3

>  <DTXSID>
DTXSID7020182

>  <DTXCID>
DTXCID30182

>  <CASRN>
80-05-7

>  <EXPOCAST_MEDIAN_EXPOSURE_PREDICTION_MG/KG-BW/DAY>
5.50E-05

>  <BIOCONCENTRATION_FACTOR_TEST_PRED>
117.22

>  <BOILING_POINT_DEGC_TEST_PRED>
359.933

>  <48HR_DAPHNIA_LC50_MOL/L_TEST_PRED>
6.92E-06

>  <DENSITY_G/CM^3_TEST_PRED>
1.195

>  <DEVTOX_TEST_PRED>
0.711

>  <96HR_FATHEAD_MINNOW_MOL/L_TEST_PRED>
1.42E-05

>  <FLASH_POINT_DEGC_TEST_PRED>
188.141

>  <MELTING_POINT_DEGC_TEST_PRED>
124.909

>  <AMES_MUTAGENICITY_TEST_PRED>
0.086

>  <ORAL_RAT_LD50_MOL/KG_TEST_PRED>
0.0179887

>  <SURFACE_TENSION_DYN/CM_TEST_PRED>
-

>  <THERMAL_CONDUCTIVITY_MW/(M*K)_TEST_PRED>
150.389

>  <TETRAHYMENA_PYRIFORMIS_IGC50_MOL/L_TEST_PRED>
2.32E-05

>  <VISCOSITY_CP_CP_TEST_PRED>
9.66051

>  <VAPOR_PRESSURE_MMHG_TEST_PRED>
2.59E-06

>  <WATER_SOLUBILITY_MOL/L_TEST_PRED>
0.00124451

>  <ATMOSPHERIC_HYDROXYLATION_RATE_(AOH)_CM3/MOLECULE*SEC_OPERA_PRED>
1.64E-11

>  <BIOCONCENTRATION_FACTOR_OPERA_PRED>
43.6523

>  <BIODEGRADATION_HALF_LIFE_DAYS_DAYS_OPERA_PRED>
15.145

>  <BOILING_POINT_DEGC_OPERA_PRED>
343.191

>  <HENRYS_LAW_ATM-M3/MOLE_OPERA_PRED>
1.25E-07

>  <OPERA_KM_DAYS_OPERA_PRED>
1.85933

>  <OCTANOL_AIR_PARTITION_COEFF_LOGKOA_OPERA_PRED>
8.38031

>  <SOIL_ADSORPTION_COEFFICIENT_KOC_L/KG_OPERA_PRED>
1436.23

>  <OCTANOL_WATER_PARTITION_LOGP_OPERA_PRED>
3.32044

>  <MELTING_POINT_DEGC_OPERA_PRED>
152.696

>  <VAPOR_PRESSURE_MMHG_OPERA_PRED>
6.78E-08

>  <WATER_SOLUBILITY_MOL/L_OPERA_PRED>
0.000745153

$$$$
4-tert-Octylphenol
Actelion Java MolfileCreator 2.0

  0  0  0  0  0  0              0 V3000
M  V30 BEGIN CTAB
M  V30 COUNTS 15 15 0 0 0
M  V30 BEGIN ATOM
M  V30 1 O 7.7942 2.25 0.0 0
M  V30 2 C 6.4952 1.5 0.0 0
M  V30 3 C 5.1961 2.25 0.0 0
M  V30 4 C 6.4952 0.0 0.0 0
M  V30 5 C 3.8971 1.5 0.0 0
M  V30 6 C 5.1961 -0.75 0.0 0
M  V30 7 C 3.8971 0.0 0.0 0
M  V30 8 C 2.598 -0.75 0.0 0
M  V30 9 C 1.299 0.0 0.0 0
M  V30 10 C 1.848 -2.049 0.0 0
M  V30 11 C 3.348 -2.049 0.0 0
M  V30 12 C 0.0 -0.75 0.0 0
M  V30 13 C 0.75 -2.049 0.0 0
M  V30 14 C -1.299 -1.5 0.0 0
M  V30 15 C -0.75 0.549 0.0 0
M  V30 END ATOM
M  V30 BEGIN BOND
M  V30 1 1 1 2
M  V30 2 2 2 3
M  V30 3 1 2 4
M  V30 4 1 3 5
M  V30 5 2 4 6
M  V30 6 2 5 7
M  V30 7 1 7 8
M  V30 8 1 8 9
M  V30 9 1 8 10
M  V30 10 1 8 11
M  V30 11 1 9 12
M  V30 12 1 12 13
M  V30 13 1 12 14
M  V30 14 1 12 15
M  V30 15 1 6 7
M  V30 END BOND
M  V30 END CTAB
M  END
>  <Order (spectra)>
365

>  <NAME>
4-tert-Octylphenol

>  <Molecular Formula>
C14H22O

>  <Monoisotopic Mass>
206.167065

>  <SMILES>
CC(C)(C)CC(C)(C)C1=CC=C(O)C=C1

>  <InChI>
InChI=1S/C14H22O/c1-13(2,3)10-14(4,5)11-6-8-12(15)9-7-11/h6-9,15H,10H2,1-5H3

>  <InChIKey>
ISAVYTVYFVQUDY-UHFFFAOYSA-N

>  <Kingdom>
Organic compounds

>  <Superclass>
Benzenoids

>  <Class>
Benzene and substituted derivatives

>  <Subclass>
Phenylpropanes

>  <Parent Level 1>
Phenylpropanes

>  <Parent Level 2>


>  <Parent Level 3>


>  <cLogP>
4.5887

>  <cLogS>
-3.357

>  <Druglikeness>
-5.8012

>  <NP-class probability>
0.94

>  <SmilesFragFp 3>


>  <MS_READY_SMILES>
CC(C)(C)CC(C)(C)C1=CC=C(O)C=C1

>  <MS_READY_InChI>
InChI=1S/C14H22O/c1-13(2,3)10-14(4,5)11-6-8-12(15)9-7-11/h6-9,15H,10H2,1-5H3

>  <QSAR_READY_SMILES>
CC(C)(C)CC(C)(C)C1=CC=C(O)C=C1

>  <QSAR_READY_InChI>
InChI=1S/C14H22O/c1-13(2,3)10-14(4,5)11-6-8-12(15)9-7-11/h6-9,15H,10H2,1-5H3

>  <DTXSID>
DTXSID9022360

>  <DTXCID>
DTXCID602360

>  <CASRN>
140-66-9

>  <EXPOCAST_MEDIAN_EXPOSURE_PREDICTION_MG/KG-BW/DAY>
9.68E-07

>  <BIOCONCENTRATION_FACTOR_TEST_PRED>
139.637

>  <BOILING_POINT_DEGC_TEST_PRED>
293.064

>  <48HR_DAPHNIA_LC50_MOL/L_TEST_PRED>
8.83E-06

>  <DENSITY_G/CM^3_TEST_PRED>
0.996

>  <DEVTOX_TEST_PRED>
0.75

>  <96HR_FATHEAD_MINNOW_MOL/L_TEST_PRED>
2.21E-05

>  <FLASH_POINT_DEGC_TEST_PRED>
145.335

>  <MELTING_POINT_DEGC_TEST_PRED>
78.787

>  <AMES_MUTAGENICITY_TEST_PRED>
0.049

>  <ORAL_RAT_LD50_MOL/KG_TEST_PRED>
0.00701455

>  <SURFACE_TENSION_DYN/CM_TEST_PRED>
35.533

>  <THERMAL_CONDUCTIVITY_MW/(M*K)_TEST_PRED>
118.715

>  <TETRAHYMENA_PYRIFORMIS_IGC50_MOL/L_TEST_PRED>
4.48E-05

>  <VISCOSITY_CP_CP_TEST_PRED>
9.90832

>  <VAPOR_PRESSURE_MMHG_TEST_PRED>
0.00156315

>  <WATER_SOLUBILITY_MOL/L_TEST_PRED>
0.000132434

>  <ATMOSPHERIC_HYDROXYLATION_RATE_(AOH)_CM3/MOLECULE*SEC_OPERA_PRED>
1.67E-11

>  <BIOCONCENTRATION_FACTOR_OPERA_PRED>
289.068

>  <BIODEGRADATION_HALF_LIFE_DAYS_DAYS_OPERA_PRED>
4.08303

>  <BOILING_POINT_DEGC_OPERA_PRED>
263.348

>  <HENRYS_LAW_ATM-M3/MOLE_OPERA_PRED>
7.90E-06

>  <OPERA_KM_DAYS_OPERA_PRED>
0.910833

>  <OCTANOL_AIR_PARTITION_COEFF_LOGKOA_OPERA_PRED>
8.68572

>  <SOIL_ADSORPTION_COEFFICIENT_KOC_L/KG_OPERA_PRED>
2453.64

>  <OCTANOL_WATER_PARTITION_LOGP_OPERA_PRED>
4.86708

>  <MELTING_POINT_DEGC_OPERA_PRED>
84.2258

>  <VAPOR_PRESSURE_MMHG_OPERA_PRED>
0.000486421

>  <WATER_SOLUBILITY_MOL/L_OPERA_PRED>
8.75E-05

$$$$
Estrone
Actelion Java MolfileCreator 2.0

  0  0  0  0  0  0              0 V3000
M  V30 BEGIN CTAB
M  V30 COUNTS 20 23 0 0 0
M  V30 BEGIN ATOM
M  V30 1 O 1.299 0.0 0.0 0
M  V30 2 C 0.0 -0.75 0.0 0
M  V30 3 C -1.3703 -0.1398 0.0 0 CFG=2
M  V30 4 C -0.1567 -2.2417 0.0 0
M  V30 5 C -2.374 -1.2546 0.0 0 CFG=1
M  V30 6 C -1.8338 1.2866 0.0 0
M  V30 7 C -0.2556 0.8638 0.0 0
M  V30 8 C -1.624 -2.5536 0.0 0
M  V30 9 C -3.8412 -0.9427 0.0 0 CFG=1
M  V30 10 C -3.301 1.5985 0.0 0
M  V30 11 C -4.3047 0.4838 0.0 0 CFG=2
M  V30 12 C -4.8449 -2.0574 0.0 0
M  V30 13 C -5.7719 0.7957 0.0 0
M  V30 14 C -6.3121 -1.7455 0.0 0
M  V30 15 C -6.7756 -0.319 0.0 0
M  V30 16 C -6.2355 2.2222 0.0 0
M  V30 17 C -8.2428 -0.0071 0.0 0
M  V30 18 C -7.7027 2.5341 0.0 0
M  V30 19 C -8.7064 1.4194 0.0 0
M  V30 20 O -10.1736 1.7313 0.0 0
M  V30 END ATOM
M  V30 BEGIN BOND
M  V30 1 2 1 2
M  V30 2 1 3 2
M  V30 3 1 2 4
M  V30 4 1 5 3
M  V30 5 1 3 6
M  V30 6 1 3 7 CFG=1
M  V30 7 1 4 8
M  V30 8 1 9 5
M  V30 9 1 6 10
M  V30 10 1 11 9
M  V30 11 1 9 12 CFG=3
M  V30 12 1 11 13
M  V30 13 1 12 14
M  V30 14 2 13 15
M  V30 15 1 13 16
M  V30 16 1 15 17
M  V30 17 2 16 18
M  V30 18 2 17 19
M  V30 19 1 19 20
M  V30 20 1 5 8 CFG=1
M  V30 21 1 11 10 CFG=1
M  V30 22 1 14 15
M  V30 23 1 18 19
M  V30 END BOND
M  V30 BEGIN COLLECTION
M  V30 MDLV30/STEABS ATOMS=(4 3 5 9 11)
M  V30 END COLLECTION
M  V30 END CTAB
M  END
>  <Order (spectra)>
366

>  <NAME>
Estrone

>  <Molecular Formula>
C18H22O2

>  <Monoisotopic Mass>
270.16198

>  <SMILES>
[H][C@@]12CCC(=O)[C@@]1(C)CC[C@]1([H])C3=C(CC[C@@]21[H])C=C(O)C=C3

>  <InChI>
InChI=1S/C18H22O2/c1-18-9-8-14-13-5-3-12(19)10-11(13)2-4-15(14)16(18)6-7-17(18)20/h3,5,10,14-16,19H,2,4,6-9H2,1H3/t14-,15+,16+,18-/m0/s1

>  <InChIKey>
DNXHEGUUPJUMQT-CBZIJGRNSA-N

>  <Kingdom>
Organic compounds

>  <Superclass>
Lipids and lipid-like molecules

>  <Class>
Steroids and steroid derivatives

>  <Subclass>
Estrane steroids

>  <Parent Level 1>
Estrogens and derivatives

>  <Parent Level 2>


>  <Parent Level 3>


>  <cLogP>
4.0203

>  <cLogS>
-4.071

>  <Druglikeness>
-0.41823

>  <NP-class probability>
1

>  <SmilesFragFp 3>


>  <MS_READY_SMILES>
CC12CCC3C(CCC4=C3C=CC(O)=C4)C1CCC2=O

>  <MS_READY_InChI>
InChI=1S/C18H22O2/c1-18-9-8-14-13-5-3-12(19)10-11(13)2-4-15(14)16(18)6-7-17(18)20/h3,5,10,14-16,19H,2,4,6-9H2,1H3

>  <QSAR_READY_SMILES>
CC12CCC3C(CCC4=C3C=CC(O)=C4)C1CCC2=O

>  <QSAR_READY_InChI>
InChI=1S/C18H22O2/c1-18-9-8-14-13-5-3-12(19)10-11(13)2-4-15(14)16(18)6-7-17(18)20/h3,5,10,14-16,19H,2,4,6-9H2,1H3

>  <DTXSID>
DTXSID4022367

>  <DTXCID>
DTXCID402367

>  <CASRN>
53-16-7

>  <EXPOCAST_MEDIAN_EXPOSURE_PREDICTION_MG/KG-BW/DAY>
1.24E-06

>  <BIOCONCENTRATION_FACTOR_TEST_PRED>
168.655

>  <BOILING_POINT_DEGC_TEST_PRED>
370.894

>  <48HR_DAPHNIA_LC50_MOL/L_TEST_PRED>
1.33E-05

>  <DENSITY_G/CM^3_TEST_PRED>
1.148

>  <DEVTOX_TEST_PRED>
0.904

>  <96HR_FATHEAD_MINNOW_MOL/L_TEST_PRED>
3.97E-06

>  <FLASH_POINT_DEGC_TEST_PRED>
198.298

>  <MELTING_POINT_DEGC_TEST_PRED>
193.352

>  <AMES_MUTAGENICITY_TEST_PRED>
0.258

>  <ORAL_RAT_LD50_MOL/KG_TEST_PRED>
0.00345939

>  <SURFACE_TENSION_DYN/CM_TEST_PRED>
44.675

>  <THERMAL_CONDUCTIVITY_MW/(M*K)_TEST_PRED>
129.746

>  <TETRAHYMENA_PYRIFORMIS_IGC50_MOL/L_TEST_PRED>
7.19E-06

>  <VISCOSITY_CP_CP_TEST_PRED>
-

>  <VAPOR_PRESSURE_MMHG_TEST_PRED>
3.28E-08

>  <WATER_SOLUBILITY_MOL/L_TEST_PRED>
4.01E-05

>  <ATMOSPHERIC_HYDROXYLATION_RATE_(AOH)_CM3/MOLECULE*SEC_OPERA_PRED>
2.71E-11

>  <BIOCONCENTRATION_FACTOR_OPERA_PRED>
65.8211

>  <BIODEGRADATION_HALF_LIFE_DAYS_DAYS_OPERA_PRED>
95.167

>  <BOILING_POINT_DEGC_OPERA_PRED>
336.617

>  <HENRYS_LAW_ATM-M3/MOLE_OPERA_PRED>
1.05E-09

>  <OPERA_KM_DAYS_OPERA_PRED>
2.11488

>  <OCTANOL_AIR_PARTITION_COEFF_LOGKOA_OPERA_PRED>
10.9598

>  <SOIL_ADSORPTION_COEFFICIENT_KOC_L/KG_OPERA_PRED>
361153

>  <OCTANOL_WATER_PARTITION_LOGP_OPERA_PRED>
3.13238

>  <MELTING_POINT_DEGC_OPERA_PRED>
260.067

>  <VAPOR_PRESSURE_MMHG_OPERA_PRED>
1.09E-09

>  <WATER_SOLUBILITY_MOL/L_OPERA_PRED>
0.000026559

$$$$
17-beta-Estradiol
Actelion Java MolfileCreator 2.0

  0  0  0  0  0  0              0 V3000
M  V30 BEGIN CTAB
M  V30 COUNTS 20 23 0 0 0
M  V30 BEGIN ATOM
M  V30 1 O 1.4931 5.9671 0.0 0
M  V30 2 C 1.3886 4.9726 0.0 0
M  V30 3 C 2.1976 4.3848 0.0 0
M  V30 4 C 0.4751 4.5658 0.0 0
M  V30 5 C 2.0931 3.3903 0.0 0
M  V30 6 C 0.3705 3.5713 0.0 0
M  V30 7 C 1.1796 2.9835 0.0 0
M  V30 8 C 2.9021 2.8025 0.0 0
M  V30 9 C 1.075 1.989 0.0 0 CFG=2
M  V30 10 C 2.7976 1.8079 0.0 0
M  V30 11 C 1.884 1.4012 0.0 0
M  V30 12 C 0.1615 1.5823 0.0 0
M  V30 13 C 1.7795 0.4067 0.0 0 CFG=1
M  V30 14 C 0.057 0.5877 0.0 0
M  V30 15 C 0.866 0.0 0.0 0 CFG=2
M  V30 16 C 2.4487 -0.3364 0.0 0
M  V30 17 C 0.9705 -0.9945 0.0 0 CFG=2
M  V30 18 C 0.0 -0.5 0.0 0
M  V30 19 C 1.9487 -1.2024 0.0 0
M  V30 20 O 0.2274 -1.6636 0.0 0
M  V30 END ATOM
M  V30 BEGIN BOND
M  V30 1 1 1 2
M  V30 2 2 2 3
M  V30 3 1 2 4
M  V30 4 1 3 5
M  V30 5 2 4 6
M  V30 6 2 5 7
M  V30 7 1 5 8
M  V30 8 1 9 7
M  V30 9 1 8 10
M  V30 10 1 9 11
M  V30 11 1 9 12 CFG=3
M  V30 12 1 13 11
M  V30 13 1 12 14
M  V30 14 1 15 13
M  V30 15 1 13 16 CFG=3
M  V30 16 1 17 15
M  V30 17 1 15 18 CFG=3
M  V30 18 1 16 19
M  V30 19 1 17 20 CFG=3
M  V30 20 1 6 7
M  V30 21 1 10 11
M  V30 22 1 14 15
M  V30 23 1 17 19
M  V30 END BOND
M  V30 BEGIN COLLECTION
M  V30 MDLV30/STEABS ATOMS=(4 9 13 15 17)
M  V30 END COLLECTION
M  V30 END CTAB
M  END
>  <Order (spectra)>
367

>  <NAME>
17-beta-Estradiol

>  <Molecular Formula>
C18H24O2

>  <Monoisotopic Mass>
272.17763

>  <SMILES>
[H][C@@]12CC[C@H](O)[C@@]1(C)CC[C@]1([H])C3=CC=C(O)C=C3CC[C@@]21[H]

>  <InChI>
InChI=1S/C18H24O2/c1-18-9-8-14-13-5-3-12(19)10-11(13)2-4-15(14)16(18)6-7-17(18)20/h3,5,10,14-17,19-20H,2,4,6-9H2,1H3/t14-,15?,16+,17-,18+/m1/s1

>  <InChIKey>
VOXZDWNPVJITMN-ZBRFXRBCSA-N

>  <Kingdom>
Organic compounds

>  <Superclass>
Lipids and lipid-like molecules

>  <Class>
Steroids and steroid derivatives

>  <Subclass>
Estrane steroids

>  <Parent Level 1>
Estrogens and derivatives

>  <Parent Level 2>


>  <Parent Level 3>


>  <cLogP>
3.8766

>  <cLogS>
-4.02

>  <Druglikeness>
0.10838

>  <NP-class probability>
1

>  <SmilesFragFp 3>


>  <MS_READY_SMILES>
CC12CCC3C(CCC4=C3C=CC(O)=C4)C1CCC2O

>  <MS_READY_InChI>
InChI=1S/C18H24O2/c1-18-9-8-14-13-5-3-12(19)10-11(13)2-4-15(14)16(18)6-7-17(18)20/h3,5,10,14-17,19-20H,2,4,6-9H2,1H3

>  <QSAR_READY_SMILES>
CC12CCC3C(CCC4=C3C=CC(O)=C4)C1CCC2O

>  <QSAR_READY_InChI>
InChI=1S/C18H24O2/c1-18-9-8-14-13-5-3-12(19)10-11(13)2-4-15(14)16(18)6-7-17(18)20/h3,5,10,14-17,19-20H,2,4,6-9H2,1H3

>  <DTXSID>
DTXSID0020573

>  <DTXCID>
DTXCID80573

>  <CASRN>
50-28-2

>  <EXPOCAST_MEDIAN_EXPOSURE_PREDICTION_MG/KG-BW/DAY>
-

>  <BIOCONCENTRATION_FACTOR_TEST_PRED>
160.694

>  <BOILING_POINT_DEGC_TEST_PRED>
378.806

>  <48HR_DAPHNIA_LC50_MOL/L_TEST_PRED>
1.16E-05

>  <DENSITY_G/CM^3_TEST_PRED>
1.158

>  <DEVTOX_TEST_PRED>
0.889

>  <96HR_FATHEAD_MINNOW_MOL/L_TEST_PRED>
3.44E-06

>  <FLASH_POINT_DEGC_TEST_PRED>
201.082

>  <MELTING_POINT_DEGC_TEST_PRED>
179.618

>  <AMES_MUTAGENICITY_TEST_PRED>
0.33

>  <ORAL_RAT_LD50_MOL/KG_TEST_PRED>
0.00579429

>  <SURFACE_TENSION_DYN/CM_TEST_PRED>
44.443

>  <THERMAL_CONDUCTIVITY_MW/(M*K)_TEST_PRED>
137.714

>  <TETRAHYMENA_PYRIFORMIS_IGC50_MOL/L_TEST_PRED>
1.02E-05

>  <VISCOSITY_CP_CP_TEST_PRED>
-

>  <VAPOR_PRESSURE_MMHG_TEST_PRED>
2.03E-08

>  <WATER_SOLUBILITY_MOL/L_TEST_PRED>
4.70E-05

>  <ATMOSPHERIC_HYDROXYLATION_RATE_(AOH)_CM3/MOLECULE*SEC_OPERA_PRED>
1.66E-11

>  <BIOCONCENTRATION_FACTOR_OPERA_PRED>
40.8171

>  <BIODEGRADATION_HALF_LIFE_DAYS_DAYS_OPERA_PRED>
97.1681

>  <BOILING_POINT_DEGC_OPERA_PRED>
372.628

>  <HENRYS_LAW_ATM-M3/MOLE_OPERA_PRED>
3.75E-06

>  <OPERA_KM_DAYS_OPERA_PRED>
1.48967

>  <OCTANOL_AIR_PARTITION_COEFF_LOGKOA_OPERA_PRED>
9.15263

>  <SOIL_ADSORPTION_COEFFICIENT_KOC_L/KG_OPERA_PRED>
348684

>  <OCTANOL_WATER_PARTITION_LOGP_OPERA_PRED>
3.90868

>  <MELTING_POINT_DEGC_OPERA_PRED>
199.93

>  <VAPOR_PRESSURE_MMHG_OPERA_PRED>
3.42E-10

>  <WATER_SOLUBILITY_MOL/L_OPERA_PRED>
1.34E-05

$$$$
Progesterone
Actelion Java MolfileCreator 2.0

  0  0  0  0  0  0              0 V3000
M  V30 BEGIN CTAB
M  V30 COUNTS 23 26 0 0 0
M  V30 BEGIN ATOM
M  V30 1 O 12.7717 1.7313 0.0 0
M  V30 2 C 11.3045 1.4194 0.0 0
M  V30 3 C 10.8409 -0.0071 0.0 0
M  V30 4 C 10.3008 2.5341 0.0 0
M  V30 5 C 9.3737 -0.319 0.0 0
M  V30 6 C 8.8335 2.2222 0.0 0
M  V30 7 C 8.37 0.7957 0.0 0
M  V30 8 C 8.9102 -1.7455 0.0 0
M  V30 9 C 6.9028 0.4838 0.0 0 CFG=2
M  V30 10 C 7.3663 1.9104 0.0 0
M  V30 11 C 7.443 -2.0574 0.0 0
M  V30 12 C 6.4393 -0.9427 0.0 0 CFG=1
M  V30 13 C 5.8991 1.5985 0.0 0
M  V30 14 C 4.972 -1.2546 0.0 0 CFG=1
M  V30 15 C 4.4319 1.2866 0.0 0
M  V30 16 C 3.9683 -0.1398 0.0 0 CFG=2
M  V30 17 C 4.222 -2.5536 0.0 0
M  V30 18 C 2.598 -0.75 0.0 0 CFG=2
M  V30 19 C 2.8536 0.8638 0.0 0
M  V30 20 C 2.7548 -2.2417 0.0 0
M  V30 21 C 1.299 0.0 0.0 0
M  V30 22 O 1.299 1.5 0.0 0
M  V30 23 C 0.0 -0.75 0.0 0
M  V30 END ATOM
M  V30 BEGIN BOND
M  V30 1 2 1 2
M  V30 2 1 2 3
M  V30 3 1 2 4
M  V30 4 2 3 5
M  V30 5 1 4 6
M  V30 6 1 5 7
M  V30 7 1 5 8
M  V30 8 1 9 7
M  V30 9 1 7 10
M  V30 10 1 8 11
M  V30 11 1 12 9
M  V30 12 1 9 13 CFG=3
M  V30 13 1 14 12
M  V30 14 1 13 15
M  V30 15 1 16 14
M  V30 16 1 14 17 CFG=3
M  V30 17 1 18 16
M  V30 18 1 16 19 CFG=3
M  V30 19 1 17 20
M  V30 20 1 18 21 CFG=3
M  V30 21 2 21 22
M  V30 22 1 21 23
M  V30 23 1 6 7
M  V30 24 1 12 11 CFG=1
M  V30 25 1 15 16
M  V30 26 1 18 20
M  V30 END BOND
M  V30 BEGIN COLLECTION
M  V30 MDLV30/STEABS ATOMS=(5 9 12 14 16 18)
M  V30 END COLLECTION
M  V30 END CTAB
M  END
>  <Order (spectra)>
368

>  <NAME>
Progesterone

>  <Molecular Formula>
C21H30O2

>  <Monoisotopic Mass>
314.22458

>  <SMILES>
[H][C@@]12CC[C@H](C(C)=O)[C@@]1(C)CC[C@@]1([H])[C@@]2([H])CCC2=CC(=O)CC[C@]12C

>  <InChI>
InChI=1S/C21H30O2/c1-13(22)17-6-7-18-16-5-4-14-12-15(23)8-10-20(14,2)19(16)9-11-21(17,18)3/h12,16-19H,4-11H2,1-3H3/t16-,17+,18+,19+,20?,21-/m1/s1

>  <InChIKey>
RJKFOVLPORLFTN-LEKSSAKUSA-N

>  <Kingdom>
Organic compounds

>  <Superclass>
Lipids and lipid-like molecules

>  <Class>
Steroids and steroid derivatives

>  <Subclass>
Pregnane steroids

>  <Parent Level 1>
Gluco/mineralocorticoids, progestogins and derivatives

>  <Parent Level 2>


>  <Parent Level 3>


>  <cLogP>
4.019

>  <cLogS>
-4.542

>  <Druglikeness>
0.77149

>  <NP-class probability>
1

>  <SmilesFragFp 3>


>  <MS_READY_SMILES>
CC(=O)C1CCC2C3CCC4=CC(=O)CCC4(C)C3CCC12C

>  <MS_READY_InChI>
InChI=1S/C21H30O2/c1-13(22)17-6-7-18-16-5-4-14-12-15(23)8-10-20(14,2)19(16)9-11-21(17,18)3/h12,16-19H,4-11H2,1-3H3

>  <QSAR_READY_SMILES>
CC(=O)C1CCC2C3CCC4=CC(=O)CCC4(C)C3CCC12C

>  <QSAR_READY_InChI>
InChI=1S/C21H30O2/c1-13(22)17-6-7-18-16-5-4-14-12-15(23)8-10-20(14,2)19(16)9-11-21(17,18)3/h12,16-19H,4-11H2,1-3H3

>  <DTXSID>
DTXSID3022370

>  <DTXCID>
DTXCID902370

>  <CASRN>
57-83-0

>  <EXPOCAST_MEDIAN_EXPOSURE_PREDICTION_MG/KG-BW/DAY>
-

>  <BIOCONCENTRATION_FACTOR_TEST_PRED>
100.693

>  <BOILING_POINT_DEGC_TEST_PRED>
365.363

>  <48HR_DAPHNIA_LC50_MOL/L_TEST_PRED>
2.15E-05

>  <DENSITY_G/CM^3_TEST_PRED>
1.078

>  <DEVTOX_TEST_PRED>
0.941

>  <96HR_FATHEAD_MINNOW_MOL/L_TEST_PRED>
5.50E-06

>  <FLASH_POINT_DEGC_TEST_PRED>
195.178

>  <MELTING_POINT_DEGC_TEST_PRED>
152.508

>  <AMES_MUTAGENICITY_TEST_PRED>
-

>  <ORAL_RAT_LD50_MOL/KG_TEST_PRED>
0.00660693

>  <SURFACE_TENSION_DYN/CM_TEST_PRED>
43.316

>  <THERMAL_CONDUCTIVITY_MW/(M*K)_TEST_PRED>
-

>  <TETRAHYMENA_PYRIFORMIS_IGC50_MOL/L_TEST_PRED>
-

>  <VISCOSITY_CP_CP_TEST_PRED>
-

>  <VAPOR_PRESSURE_MMHG_TEST_PRED>
3.35E-07

>  <WATER_SOLUBILITY_MOL/L_TEST_PRED>
2.50E-05

>  <ATMOSPHERIC_HYDROXYLATION_RATE_(AOH)_CM3/MOLECULE*SEC_OPERA_PRED>
1.03E-10

>  <BIOCONCENTRATION_FACTOR_OPERA_PRED>
51.5128

>  <BIODEGRADATION_HALF_LIFE_DAYS_DAYS_OPERA_PRED>
97.4949

>  <BOILING_POINT_DEGC_OPERA_PRED>
326.139

>  <HENRYS_LAW_ATM-M3/MOLE_OPERA_PRED>
1.30E-06

>  <OPERA_KM_DAYS_OPERA_PRED>
54.4184

>  <OCTANOL_AIR_PARTITION_COEFF_LOGKOA_OPERA_PRED>
9.87339

>  <SOIL_ADSORPTION_COEFFICIENT_KOC_L/KG_OPERA_PRED>
562836

>  <OCTANOL_WATER_PARTITION_LOGP_OPERA_PRED>
3.87106

>  <MELTING_POINT_DEGC_OPERA_PRED>
121.401

>  <VAPOR_PRESSURE_MMHG_OPERA_PRED>
7.04E-08

>  <WATER_SOLUBILITY_MOL/L_OPERA_PRED>
3.42E-05

$$$$