Perylene_2H12
Actelion Java MolfileCreator 2.0

  0  0  0  0  0  0              0 V3000
M  V30 BEGIN CTAB
M  V30 COUNTS 32 36 0 0 0
M  V30 BEGIN ATOM
M  V30 1 C 2.598 0.0 0.0 0
M  V30 2 C 1.732 -0.5 0.0 0
M  V30 3 C 3.4641 -0.4999 0.0 0
M  V30 4 C 2.598 0.9999 0.0 0
M  V30 5 C 1.732 -1.5 0.0 0
M  V30 6 C 0.866 0.0 0.0 0
M  V30 7 C 3.4641 -1.4999 0.0 0
M  V30 8 C 4.3301 0.0 0.0 0
M  V30 9 C 1.732 1.4999 0.0 0
M  V30 10 C 3.4641 1.4999 0.0 0
M  V30 11 C 2.598 -1.9999 0.0 0
M  V30 12 C 0.866 -2.0 0.0 0
M  V30 13 C 0.866 0.9999 0.0 0
M  V30 14 H 0.0 -0.5 0.0 0 MASS=2
M  V30 15 C 4.3301 -1.9999 0.0 0
M  V30 16 C 4.3301 0.9999 0.0 0
M  V30 17 H 5.1961 -0.5 0.0 0 MASS=2
M  V30 18 H 1.732 2.5 0.0 0 MASS=2
M  V30 19 H 3.4641 2.4999 0.0 0 MASS=2
M  V30 20 C 2.598 -3.0 0.0 0
M  V30 21 C 0.866 -3.0 0.0 0
M  V30 22 H 0.0 -1.5 0.0 0 MASS=2
M  V30 23 H 0.0 1.4999 0.0 0 MASS=2
M  V30 24 C 4.3301 -3.0 0.0 0
M  V30 25 H 5.1961 -1.4999 0.0 0 MASS=2
M  V30 26 H 5.1961 1.4999 0.0 0 MASS=2
M  V30 27 C 1.732 -3.5 0.0 0
M  V30 28 C 3.4641 -3.4999 0.0 0
M  V30 29 H 0.0 -3.5 0.0 0 MASS=2
M  V30 30 H 5.1961 -3.5 0.0 0 MASS=2
M  V30 31 H 1.732 -4.5 0.0 0 MASS=2
M  V30 32 H 3.4641 -4.5 0.0 0 MASS=2
M  V30 END ATOM
M  V30 BEGIN BOND
M  V30 1 1 1 2
M  V30 2 2 1 3
M  V30 3 1 1 4
M  V30 4 1 2 5
M  V30 5 2 2 6
M  V30 6 1 3 7
M  V30 7 1 3 8
M  V30 8 1 4 9
M  V30 9 2 4 10
M  V30 10 1 5 11
M  V30 11 2 5 12
M  V30 12 1 6 13
M  V30 13 1 6 14
M  V30 14 1 7 15
M  V30 15 2 8 16
M  V30 16 1 8 17
M  V30 17 1 9 18
M  V30 18 1 10 19
M  V30 19 1 11 20
M  V30 20 1 12 21
M  V30 21 1 12 22
M  V30 22 1 13 23
M  V30 23 2 15 24
M  V30 24 1 15 25
M  V30 25 1 16 26
M  V30 26 1 20 27
M  V30 27 2 20 28
M  V30 28 1 21 29
M  V30 29 1 24 30
M  V30 30 1 27 31
M  V30 31 1 28 32
M  V30 32 2 7 11
M  V30 33 2 9 13
M  V30 34 1 10 16
M  V30 35 2 21 27
M  V30 36 1 24 28
M  V30 END BOND
M  V30 END CTAB
M  END
>  <Order (spectra)>
1

>  <NAME>
Perylene_2H12

>  <Molecular Formula>
C20D12

>  <Monoisotopic Mass>
264.168

>  <SMILES>
[2H]C1=C([2H])C2=C3C(=C1[2H])C1=C([2H])C([2H])=C([2H])C4=C1C(=C([2H])C([2H])=C4[2H])C3=C([2H])C([2H])=C2[2H]

>  <InChI>
InChI=1S/C20H12/c1-5-13-6-2-11-17-18-12-4-8-14-7-3-10-16(20(14)18)15(9-1)19(13)17/h1-12H/i1D,2D,3D,4D,5D,6D,7D,8D,9D,10D,11D,12D

>  <InChIKey>
CSHWQDPOILHKBI-AQZSQYOVSA-N

>  <Kingdom>
Organic compounds

>  <Superclass>
Benzenoids

>  <Class>
Phenanthrenes and derivatives

>  <Subclass>


>  <Parent Level 1>
Phenanthrenes and derivatives

>  <Parent Level 2>


>  <Parent Level 3>


>  <cLogP>
5.7072

>  <cLogS>
-7.914

>  <Druglikeness>
-2.1841

>  <NP-class probability>
0.35

>  <SmilesFragFp 3>


>  <MS_READY_SMILES>
C1=CC2=C3C(=C1)C1=CC=CC4=C1C(=CC=C4)C3=CC=C2

>  <MS_READY_InChI>
InChI=1S/C20H12/c1-5-13-6-2-11-17-18-12-4-8-14-7-3-10-16(20(14)18)15(9-1)19(13)17/h1-12H

>  <QSAR_READY_SMILES>
C1=CC2=C3C(=C1)C1=CC=CC4=C1C(=CC=C4)C3=CC=C2

>  <QSAR_READY_InChI>
InChI=1S/C20H12/c1-5-13-6-2-11-17-18-12-4-8-14-7-3-10-16(20(14)18)15(9-1)19(13)17/h1-12H

>  <DTXSID>
DTXSID60934397

>  <DTXCID>
DTXCID601363045

>  <CASRN>
1520-96-3

>  <EXPOCAST_MEDIAN_EXPOSURE_PREDICTION_MG/KG-BW/DAY>
-

>  <BIOCONCENTRATION_FACTOR_TEST_PRED>
-

>  <BOILING_POINT_DEGC_TEST_PRED>
-

>  <48HR_DAPHNIA_LC50_MOL/L_TEST_PRED>
-

>  <DENSITY_G/CM^3_TEST_PRED>
-

>  <DEVTOX_TEST_PRED>
-

>  <96HR_FATHEAD_MINNOW_MOL/L_TEST_PRED>
-

>  <FLASH_POINT_DEGC_TEST_PRED>
-

>  <MELTING_POINT_DEGC_TEST_PRED>
-

>  <AMES_MUTAGENICITY_TEST_PRED>
-

>  <ORAL_RAT_LD50_MOL/KG_TEST_PRED>
-

>  <SURFACE_TENSION_DYN/CM_TEST_PRED>
-

>  <THERMAL_CONDUCTIVITY_MW/(M*K)_TEST_PRED>
-

>  <TETRAHYMENA_PYRIFORMIS_IGC50_MOL/L_TEST_PRED>
-

>  <VISCOSITY_CP_CP_TEST_PRED>
-

>  <VAPOR_PRESSURE_MMHG_TEST_PRED>
-

>  <WATER_SOLUBILITY_MOL/L_TEST_PRED>
-

>  <ATMOSPHERIC_HYDROXYLATION_RATE_(AOH)_CM3/MOLECULE*SEC_OPERA_PRED>
3.45E-11

>  <BIOCONCENTRATION_FACTOR_OPERA_PRED>
910.302

>  <BIODEGRADATION_HALF_LIFE_DAYS_DAYS_OPERA_PRED>
895.527

>  <BOILING_POINT_DEGC_OPERA_PRED>
486.93

>  <HENRYS_LAW_ATM-M3/MOLE_OPERA_PRED>
1.06E-06

>  <OPERA_KM_DAYS_OPERA_PRED>
0.871916

>  <OCTANOL_AIR_PARTITION_COEFF_LOGKOA_OPERA_PRED>
10.3435

>  <SOIL_ADSORPTION_COEFFICIENT_KOC_L/KG_OPERA_PRED>
549080

>  <OCTANOL_WATER_PARTITION_LOGP_OPERA_PRED>
6.04911

>  <MELTING_POINT_DEGC_OPERA_PRED>
225.812

>  <VAPOR_PRESSURE_MMHG_OPERA_PRED>
5.24E-09

>  <WATER_SOLUBILITY_MOL/L_OPERA_PRED>
2.34E-09

$$$$
Perylene
Actelion Java MolfileCreator 2.0

  0  0  0  0  0  0              0 V3000
M  V30 BEGIN CTAB
M  V30 COUNTS 20 24 0 0 0
M  V30 BEGIN ATOM
M  V30 1 C 0.0 0.0 0.0 0
M  V30 2 C 0.0 -1.0 0.0 0
M  V30 3 C 0.866 0.4999 0.0 0
M  V30 4 C -0.866 0.4999 0.0 0
M  V30 5 C 0.866 -1.5 0.0 0
M  V30 6 C -0.866 -1.4999 0.0 0
M  V30 7 C 1.732 0.0 0.0 0
M  V30 8 C 0.866 1.4999 0.0 0
M  V30 9 C -1.732 0.0 0.0 0
M  V30 10 C -0.866 1.5 0.0 0
M  V30 11 C 1.732 -0.9999 0.0 0
M  V30 12 C 0.866 -2.5 0.0 0
M  V30 13 C -1.732 -0.9999 0.0 0
M  V30 14 C 2.598 0.4999 0.0 0
M  V30 15 C 0.0 2.0 0.0 0
M  V30 16 C 2.598 -1.4999 0.0 0
M  V30 17 C 1.732 -3.0 0.0 0
M  V30 18 C 3.4641 0.0 0.0 0
M  V30 19 C 2.598 -2.5 0.0 0
M  V30 20 C 3.4641 -0.9999 0.0 0
M  V30 END ATOM
M  V30 BEGIN BOND
M  V30 1 1 1 2
M  V30 2 2 1 3
M  V30 3 1 1 4
M  V30 4 1 2 5
M  V30 5 2 2 6
M  V30 6 1 3 7
M  V30 7 1 3 8
M  V30 8 1 4 9
M  V30 9 2 4 10
M  V30 10 1 5 11
M  V30 11 2 5 12
M  V30 12 1 6 13
M  V30 13 1 7 14
M  V30 14 2 8 15
M  V30 15 1 11 16
M  V30 16 1 12 17
M  V30 17 2 14 18
M  V30 18 1 16 19
M  V30 19 2 16 20
M  V30 20 2 7 11
M  V30 21 2 9 13
M  V30 22 1 10 15
M  V30 23 2 17 19
M  V30 24 1 18 20
M  V30 END BOND
M  V30 END CTAB
M  END
>  <Order (spectra)>
2

>  <NAME>
Perylene

>  <Molecular Formula>
C20H12

>  <Monoisotopic Mass>
252.0939

>  <SMILES>
C1=CC2=C3C(=C1)C1=CC=CC4=C1C(=CC=C4)C3=CC=C2

>  <InChI>
InChI=1S/C20H12/c1-5-13-6-2-11-17-18-12-4-8-14-7-3-10-16(20(14)18)15(9-1)19(13)17/h1-12H

>  <InChIKey>
CSHWQDPOILHKBI-UHFFFAOYSA-N

>  <Kingdom>
Organic compounds

>  <Superclass>
Benzenoids

>  <Class>
Phenanthrenes and derivatives

>  <Subclass>


>  <Parent Level 1>
Phenanthrenes and derivatives

>  <Parent Level 2>


>  <Parent Level 3>


>  <cLogP>
5.7072

>  <cLogS>
-7.914

>  <Druglikeness>
-2.1841

>  <NP-class probability>
1

>  <SmilesFragFp 3>


>  <MS_READY_SMILES>
C1=CC2=C3C(=C1)C1=CC=CC4=C1C(=CC=C4)C3=CC=C2

>  <MS_READY_InChI>
InChI=1S/C20H12/c1-5-13-6-2-11-17-18-12-4-8-14-7-3-10-16(20(14)18)15(9-1)19(13)17/h1-12H

>  <QSAR_READY_SMILES>
C1=CC2=C3C(=C1)C1=CC=CC4=C1C(=CC=C4)C3=CC=C2

>  <QSAR_READY_InChI>
InChI=1S/C20H12/c1-5-13-6-2-11-17-18-12-4-8-14-7-3-10-16(20(14)18)15(9-1)19(13)17/h1-12H

>  <DTXSID>
DTXSID4047753

>  <DTXCID>
DTXCID9027736

>  <CASRN>
198-55-0

>  <EXPOCAST_MEDIAN_EXPOSURE_PREDICTION_MG/KG-BW/DAY>
1.82E-06

>  <BIOCONCENTRATION_FACTOR_TEST_PRED>
724.436

>  <BOILING_POINT_DEGC_TEST_PRED>
480.019

>  <48HR_DAPHNIA_LC50_MOL/L_TEST_PRED>
7.14E-07

>  <DENSITY_G/CM^3_TEST_PRED>
1.275

>  <DEVTOX_TEST_PRED>
0.355

>  <96HR_FATHEAD_MINNOW_MOL/L_TEST_PRED>
2.14E-07

>  <FLASH_POINT_DEGC_TEST_PRED>
230.615

>  <MELTING_POINT_DEGC_TEST_PRED>
207.823

>  <AMES_MUTAGENICITY_TEST_PRED>
1.037

>  <ORAL_RAT_LD50_MOL/KG_TEST_PRED>
-

>  <SURFACE_TENSION_DYN/CM_TEST_PRED>
44.403

>  <THERMAL_CONDUCTIVITY_MW/(M*K)_TEST_PRED>
-

>  <TETRAHYMENA_PYRIFORMIS_IGC50_MOL/L_TEST_PRED>
3.44E-06

>  <VISCOSITY_CP_CP_TEST_PRED>
-

>  <VAPOR_PRESSURE_MMHG_TEST_PRED>
4.49E-09

>  <WATER_SOLUBILITY_MOL/L_TEST_PRED>
7.74E-09

>  <ATMOSPHERIC_HYDROXYLATION_RATE_(AOH)_CM3/MOLECULE*SEC_OPERA_PRED>
3.45E-11

>  <BIOCONCENTRATION_FACTOR_OPERA_PRED>
910.302

>  <BIODEGRADATION_HALF_LIFE_DAYS_DAYS_OPERA_PRED>
895.527

>  <BOILING_POINT_DEGC_OPERA_PRED>
486.93

>  <HENRYS_LAW_ATM-M3/MOLE_OPERA_PRED>
1.06E-06

>  <OPERA_KM_DAYS_OPERA_PRED>
0.871916

>  <OCTANOL_AIR_PARTITION_COEFF_LOGKOA_OPERA_PRED>
10.3435

>  <SOIL_ADSORPTION_COEFFICIENT_KOC_L/KG_OPERA_PRED>
549080

>  <OCTANOL_WATER_PARTITION_LOGP_OPERA_PRED>
6.04911

>  <MELTING_POINT_DEGC_OPERA_PRED>
225.812

>  <VAPOR_PRESSURE_MMHG_OPERA_PRED>
5.24E-09

>  <WATER_SOLUBILITY_MOL/L_OPERA_PRED>
2.34E-09

$$$$
Testosterone
Actelion Java MolfileCreator 2.0

  0  0  0  0  0  0              0 V3000
M  V30 BEGIN CTAB
M  V30 COUNTS 21 24 0 0 0
M  V30 BEGIN ATOM
M  V30 1 O 1.4931 5.9671 0.0 0
M  V30 2 C 1.3886 4.9726 0.0 0
M  V30 3 C 2.1976 4.3848 0.0 0
M  V30 4 C 0.4751 4.5658 0.0 0
M  V30 5 C 2.0931 3.3903 0.0 0
M  V30 6 C 0.3705 3.5713 0.0 0
M  V30 7 C 1.1796 2.9835 0.0 0 CFG=2
M  V30 8 C 2.9021 2.8025 0.0 0
M  V30 9 C 1.075 1.989 0.0 0 CFG=2
M  V30 10 C 0.266 2.5768 0.0 0
M  V30 11 C 2.7976 1.8079 0.0 0
M  V30 12 C 1.884 1.4012 0.0 0 CFG=1
M  V30 13 C 0.1615 1.5823 0.0 0
M  V30 14 C 1.7795 0.4067 0.0 0 CFG=1
M  V30 15 C 0.057 0.5877 0.0 0
M  V30 16 C 0.866 0.0 0.0 0 CFG=2
M  V30 17 C 2.4487 -0.3364 0.0 0
M  V30 18 C 0.9705 -0.9945 0.0 0 CFG=2
M  V30 19 C 0.0 -0.5 0.0 0
M  V30 20 C 1.9487 -1.2024 0.0 0
M  V30 21 O 0.2274 -1.6636 0.0 0
M  V30 END ATOM
M  V30 BEGIN BOND
M  V30 1 2 1 2
M  V30 2 1 2 3
M  V30 3 1 2 4
M  V30 4 2 3 5
M  V30 5 1 4 6
M  V30 6 1 7 5
M  V30 7 1 5 8
M  V30 8 1 9 7
M  V30 9 1 7 10 CFG=3
M  V30 10 1 8 11
M  V30 11 1 12 9
M  V30 12 1 9 13 CFG=3
M  V30 13 1 14 12
M  V30 14 1 13 15
M  V30 15 1 16 14
M  V30 16 1 14 17 CFG=3
M  V30 17 1 18 16
M  V30 18 1 16 19 CFG=3
M  V30 19 1 17 20
M  V30 20 1 18 21 CFG=3
M  V30 21 1 6 7
M  V30 22 1 12 11 CFG=1
M  V30 23 1 15 16
M  V30 24 1 18 20
M  V30 END BOND
M  V30 BEGIN COLLECTION
M  V30 MDLV30/STEABS ATOMS=(6 7 9 12 14 16 18)
M  V30 END COLLECTION
M  V30 END CTAB
M  END
>  <Order (spectra)>
369

>  <NAME>
Testosterone

>  <Molecular Formula>
C19H28O2

>  <Monoisotopic Mass>
288.20893

>  <SMILES>
C[C@]12CC[C@H]3[C@@H](CCC4=CC(=O)CC[C@]34C)[C@@H]1CC[C@@H]2O

>  <InChI>
InChI=1S/C19H28O2/c1-18-9-7-13(20)11-12(18)3-4-14-15-5-6-17(21)19(15,2)10-8-16(14)18/h11,14-17,21H,3-10H2,1-2H3/t14-,15+,16+,17-,18+,19+/m1/s1

>  <InChIKey>
MUMGGOZAMZWBJJ-DYKIIFRCSA-N

>  <Kingdom>
Organic compounds

>  <Superclass>
Lipids and lipid-like molecules

>  <Class>
Steroids and steroid derivatives

>  <Subclass>
Androstane steroids

>  <Parent Level 1>
Androgens and derivatives

>  <Parent Level 2>


>  <Parent Level 3>


>  <cLogP>
3.4962

>  <cLogS>
-4.061

>  <Druglikeness>
1.56

>  <NP-class probability>
0.76

>  <SmilesFragFp 3>


>  <MS_READY_SMILES>
CC12CCC3C(CCC4=CC(=O)CCC34C)C1CCC2O

>  <MS_READY_InChI>
InChI=1S/C19H28O2/c1-18-9-7-13(20)11-12(18)3-4-14-15-5-6-17(21)19(15,2)10-8-16(14)18/h11,14-17,21H,3-10H2,1-2H3

>  <QSAR_READY_SMILES>
CC12CCC3C(CCC4=CC(=O)CCC34C)C1CCC2O

>  <QSAR_READY_InChI>
InChI=1S/C19H28O2/c1-18-9-7-13(20)11-12(18)3-4-14-15-5-6-17(21)19(15,2)10-8-16(14)18/h11,14-17,21H,3-10H2,1-2H3

>  <DTXSID>
DTXSID8022371

>  <DTXCID>
DTXCID302371

>  <CASRN>
58-22-0

>  <EXPOCAST_MEDIAN_EXPOSURE_PREDICTION_MG/KG-BW/DAY>
-

>  <BIOCONCENTRATION_FACTOR_TEST_PRED>
80.5378

>  <BOILING_POINT_DEGC_TEST_PRED>
357.585

>  <48HR_DAPHNIA_LC50_MOL/L_TEST_PRED>
2.07E-05

>  <DENSITY_G/CM^3_TEST_PRED>
1.111

>  <DEVTOX_TEST_PRED>
1.04

>  <96HR_FATHEAD_MINNOW_MOL/L_TEST_PRED>
4.29E-06

>  <FLASH_POINT_DEGC_TEST_PRED>
192.036

>  <MELTING_POINT_DEGC_TEST_PRED>
149.177

>  <AMES_MUTAGENICITY_TEST_PRED>
-0.018

>  <ORAL_RAT_LD50_MOL/KG_TEST_PRED>
0.0135207

>  <SURFACE_TENSION_DYN/CM_TEST_PRED>
43.766

>  <THERMAL_CONDUCTIVITY_MW/(M*K)_TEST_PRED>
-

>  <TETRAHYMENA_PYRIFORMIS_IGC50_MOL/L_TEST_PRED>
-

>  <VISCOSITY_CP_CP_TEST_PRED>
-

>  <VAPOR_PRESSURE_MMHG_TEST_PRED>
2.45E-07

>  <WATER_SOLUBILITY_MOL/L_TEST_PRED>
0.000130317

>  <ATMOSPHERIC_HYDROXYLATION_RATE_(AOH)_CM3/MOLECULE*SEC_OPERA_PRED>
3.99E-11

>  <BIOCONCENTRATION_FACTOR_OPERA_PRED>
55.074

>  <BIODEGRADATION_HALF_LIFE_DAYS_DAYS_OPERA_PRED>
97.3688

>  <BOILING_POINT_DEGC_OPERA_PRED>
295.438

>  <HENRYS_LAW_ATM-M3/MOLE_OPERA_PRED>
7.05E-08

>  <OPERA_KM_DAYS_OPERA_PRED>
3.30417

>  <OCTANOL_AIR_PARTITION_COEFF_LOGKOA_OPERA_PRED>
10.9935

>  <SOIL_ADSORPTION_COEFFICIENT_KOC_L/KG_OPERA_PRED>
142142

>  <OCTANOL_WATER_PARTITION_LOGP_OPERA_PRED>
3.31807

>  <MELTING_POINT_DEGC_OPERA_PRED>
154.925

>  <VAPOR_PRESSURE_MMHG_OPERA_PRED>
1.61E-07

>  <WATER_SOLUBILITY_MOL/L_OPERA_PRED>
9.12E-05

$$$$