Benzo[e]pyrene
Actelion Java MolfileCreator 2.0

  0  0  0  0  0  0              0 V3000
M  V30 BEGIN CTAB
M  V30 COUNTS 20 24 0 0 0
M  V30 BEGIN ATOM
M  V30 1 C 0.0 0.0 0.0 0
M  V30 2 C 0.0 -1.0 0.0 0
M  V30 3 C 0.866 0.4999 0.0 0
M  V30 4 C -0.866 0.4999 0.0 0
M  V30 5 C 0.866 -1.5 0.0 0
M  V30 6 C -0.866 -1.4999 0.0 0
M  V30 7 C 1.732 0.0 0.0 0
M  V30 8 C 0.866 1.4999 0.0 0
M  V30 9 C -1.732 0.0 0.0 0
M  V30 10 C -0.866 1.5 0.0 0
M  V30 11 C 1.732 -0.9999 0.0 0
M  V30 12 C 0.866 -2.5 0.0 0
M  V30 13 C -1.732 -0.9999 0.0 0
M  V30 14 C -0.866 -2.4999 0.0 0
M  V30 15 C 2.598 0.4999 0.0 0
M  V30 16 C 0.0 2.0 0.0 0
M  V30 17 C 2.598 -1.4999 0.0 0
M  V30 18 C 0.0 -3.0 0.0 0
M  V30 19 C 3.4641 0.0 0.0 0
M  V30 20 C 3.4641 -0.9999 0.0 0
M  V30 END ATOM
M  V30 BEGIN BOND
M  V30 1 2 1 2
M  V30 2 1 1 3
M  V30 3 1 1 4
M  V30 4 1 2 5
M  V30 5 1 2 6
M  V30 6 2 3 7
M  V30 7 1 3 8
M  V30 8 1 4 9
M  V30 9 2 4 10
M  V30 10 2 5 11
M  V30 11 1 5 12
M  V30 12 1 6 13
M  V30 13 2 6 14
M  V30 14 1 7 15
M  V30 15 2 8 16
M  V30 16 1 11 17
M  V30 17 2 12 18
M  V30 18 2 15 19
M  V30 19 2 17 20
M  V30 20 1 7 11
M  V30 21 2 9 13
M  V30 22 1 10 16
M  V30 23 1 14 18
M  V30 24 1 19 20
M  V30 END BOND
M  V30 END CTAB
M  END
>  <Order (spectra)>
19

>  <NAME>
Benzo[e]pyrene

>  <Molecular Formula>
C20H12

>  <Monoisotopic Mass>
252.0939

>  <SMILES>
C1=CC2=C3C=CC=C4C=CC5=CC=CC(=C2C=C1)C5=C34

>  <InChI>
InChI=1S/C20H12/c1-2-8-16-15(7-1)17-9-3-5-13-11-12-14-6-4-10-18(16)20(14)19(13)17/h1-12H

>  <InChIKey>
TXVHTIQJNYSSKO-UHFFFAOYSA-N

>  <Kingdom>
Organic compounds

>  <Superclass>
Benzenoids

>  <Class>
Pyrenes

>  <Subclass>
Benzopyrenes

>  <Parent Level 1>
Benzopyrenes

>  <Parent Level 2>


>  <Parent Level 3>


>  <cLogP>
5.884

>  <cLogS>
-7.678

>  <Druglikeness>
-2.3575

>  <NP-class probability>
1

>  <SmilesFragFp 3>


>  <MS_READY_SMILES>
C1=CC2=C3C=CC=C4C=CC5=CC=CC(=C2C=C1)C5=C34

>  <MS_READY_InChI>
InChI=1S/C20H12/c1-2-8-16-15(7-1)17-9-3-5-13-11-12-14-6-4-10-18(16)20(14)19(13)17/h1-12H

>  <QSAR_READY_SMILES>
C1=CC2=C3C=CC=C4C=CC5=CC=CC(=C2C=C1)C5=C34

>  <QSAR_READY_InChI>
InChI=1S/C20H12/c1-2-8-16-15(7-1)17-9-3-5-13-11-12-14-6-4-10-18(16)20(14)19(13)17/h1-12H

>  <DTXSID>
DTXSID3023764

>  <DTXCID>
DTXCID103764

>  <CASRN>
192-97-2

>  <EXPOCAST_MEDIAN_EXPOSURE_PREDICTION_MG/KG-BW/DAY>
8.86E-06

>  <BIOCONCENTRATION_FACTOR_TEST_PRED>
654.636

>  <BOILING_POINT_DEGC_TEST_PRED>
477.23

>  <48HR_DAPHNIA_LC50_MOL/L_TEST_PRED>
7.48E-07

>  <DENSITY_G/CM^3_TEST_PRED>
1.273

>  <DEVTOX_TEST_PRED>
0.355

>  <96HR_FATHEAD_MINNOW_MOL/L_TEST_PRED>
2.12E-07

>  <FLASH_POINT_DEGC_TEST_PRED>
232.257

>  <MELTING_POINT_DEGC_TEST_PRED>
223.85

>  <AMES_MUTAGENICITY_TEST_PRED>
0.984

>  <ORAL_RAT_LD50_MOL/KG_TEST_PRED>
-

>  <SURFACE_TENSION_DYN/CM_TEST_PRED>
44.403

>  <THERMAL_CONDUCTIVITY_MW/(M*K)_TEST_PRED>
-

>  <TETRAHYMENA_PYRIFORMIS_IGC50_MOL/L_TEST_PRED>
3.44E-06

>  <VISCOSITY_CP_CP_TEST_PRED>
-

>  <VAPOR_PRESSURE_MMHG_TEST_PRED>
7.13E-09

>  <WATER_SOLUBILITY_MOL/L_TEST_PRED>
8.17E-09

>  <ATMOSPHERIC_HYDROXYLATION_RATE_(AOH)_CM3/MOLECULE*SEC_OPERA_PRED>
3.45E-11

>  <BIOCONCENTRATION_FACTOR_OPERA_PRED>
910.302

>  <BIODEGRADATION_HALF_LIFE_DAYS_DAYS_OPERA_PRED>
365.345

>  <BOILING_POINT_DEGC_OPERA_PRED>
486.93

>  <HENRYS_LAW_ATM-M3/MOLE_OPERA_PRED>
1.07E-06

>  <OPERA_KM_DAYS_OPERA_PRED>
1.17396

>  <OCTANOL_AIR_PARTITION_COEFF_LOGKOA_OPERA_PRED>
10.3435

>  <SOIL_ADSORPTION_COEFFICIENT_KOC_L/KG_OPERA_PRED>
544271

>  <OCTANOL_WATER_PARTITION_LOGP_OPERA_PRED>
6.42775

>  <MELTING_POINT_DEGC_OPERA_PRED>
225.812

>  <VAPOR_PRESSURE_MMHG_OPERA_PRED>
5.68E-09

>  <WATER_SOLUBILITY_MOL/L_OPERA_PRED>
1.36E-08

$$$$
2-tert-Butyl-4-methoxyphenol
Actelion Java MolfileCreator 2.0

  0  0  0  0  0  0              0 V3000
M  V30 BEGIN CTAB
M  V30 COUNTS 13 13 0 0 0
M  V30 BEGIN ATOM
M  V30 1 O 0.866 0.0 0.0 0
M  V30 2 C 1.732 -0.5 0.0 0
M  V30 3 C 0.0 -0.5 0.0 0
M  V30 4 C 1.732 -1.5 0.0 0
M  V30 5 C 2.598 0.0 0.0 0
M  V30 6 C 2.598 -2.0 0.0 0
M  V30 7 C 3.4641 -0.5 0.0 0
M  V30 8 C 3.4641 -1.5 0.0 0
M  V30 9 C 2.598 -3.0 0.0 0
M  V30 10 O 4.3301 -2.0 0.0 0
M  V30 11 C 3.598 -3.0 0.0 0
M  V30 12 C 2.598 -4.0 0.0 0
M  V30 13 C 1.598 -3.0 0.0 0
M  V30 END ATOM
M  V30 BEGIN BOND
M  V30 1 1 1 2
M  V30 2 1 1 3
M  V30 3 2 2 4
M  V30 4 1 2 5
M  V30 5 1 4 6
M  V30 6 2 5 7
M  V30 7 2 6 8
M  V30 8 1 6 9
M  V30 9 1 8 10
M  V30 10 1 9 11
M  V30 11 1 9 12
M  V30 12 1 9 13
M  V30 13 1 7 8
M  V30 END BOND
M  V30 END CTAB
M  END
>  <Order (spectra)>
28

>  <NAME>
2-tert-Butyl-4-methoxyphenol

>  <Molecular Formula>
C11H16O2

>  <Monoisotopic Mass>
180.11503

>  <SMILES>
COC1=CC=C(O)C(=C1)C(C)(C)C

>  <InChI>
InChI=1S/C11H16O2/c1-11(2,3)9-7-8(13-4)5-6-10(9)12/h5-7,12H,1-4H3

>  <InChIKey>
MRBKEAMVRSLQPH-UHFFFAOYSA-N

>  <Kingdom>
Organic compounds

>  <Superclass>
Benzenoids

>  <Class>
Phenols

>  <Subclass>
Methoxyphenols

>  <Parent Level 1>
Methoxyphenols

>  <Parent Level 2>


>  <Parent Level 3>


>  <cLogP>
2.8258

>  <cLogS>
-2.498

>  <Druglikeness>
-4.9548

>  <NP-class probability>
1

>  <SmilesFragFp 3>


>  <MS_READY_SMILES>
COC1=CC=C(O)C(=C1)C(C)(C)C

>  <MS_READY_InChI>
InChI=1S/C11H16O2/c1-11(2,3)9-7-8(13-4)5-6-10(9)12/h5-7,12H,1-4H3

>  <QSAR_READY_SMILES>
COC1=CC=C(O)C(=C1)C(C)(C)C

>  <QSAR_READY_InChI>
InChI=1S/C11H16O2/c1-11(2,3)9-7-8(13-4)5-6-10(9)12/h5-7,12H,1-4H3

>  <DTXSID>
DTXSID7040788

>  <DTXCID>
DTXCID90215

>  <CASRN>
121-00-6

>  <EXPOCAST_MEDIAN_EXPOSURE_PREDICTION_MG/KG-BW/DAY>
3.81E-05

>  <BIOCONCENTRATION_FACTOR_TEST_PRED>
116.95

>  <BOILING_POINT_DEGC_TEST_PRED>
256.672

>  <48HR_DAPHNIA_LC50_MOL/L_TEST_PRED>
1.59E-05

>  <DENSITY_G/CM^3_TEST_PRED>
1

>  <DEVTOX_TEST_PRED>
0.884

>  <96HR_FATHEAD_MINNOW_MOL/L_TEST_PRED>
5.14E-05

>  <FLASH_POINT_DEGC_TEST_PRED>
104.339

>  <MELTING_POINT_DEGC_TEST_PRED>
56.534

>  <AMES_MUTAGENICITY_TEST_PRED>
0.026

>  <ORAL_RAT_LD50_MOL/KG_TEST_PRED>
0.00879022

>  <SURFACE_TENSION_DYN/CM_TEST_PRED>
33.049

>  <THERMAL_CONDUCTIVITY_MW/(M*K)_TEST_PRED>
130.559

>  <TETRAHYMENA_PYRIFORMIS_IGC50_MOL/L_TEST_PRED>
0.00009977

>  <VISCOSITY_CP_CP_TEST_PRED>
5.02343

>  <VAPOR_PRESSURE_MMHG_TEST_PRED>
0.00897429

>  <WATER_SOLUBILITY_MOL/L_TEST_PRED>
0.000528445

>  <ATMOSPHERIC_HYDROXYLATION_RATE_(AOH)_CM3/MOLECULE*SEC_OPERA_PRED>
1.65E-11

>  <BIOCONCENTRATION_FACTOR_OPERA_PRED>
19.9259

>  <BIODEGRADATION_HALF_LIFE_DAYS_DAYS_OPERA_PRED>
3.7272

>  <BOILING_POINT_DEGC_OPERA_PRED>
250.31

>  <HENRYS_LAW_ATM-M3/MOLE_OPERA_PRED>
4.74E-07

>  <OPERA_KM_DAYS_OPERA_PRED>
0.17512

>  <OCTANOL_AIR_PARTITION_COEFF_LOGKOA_OPERA_PRED>
7.77805

>  <SOIL_ADSORPTION_COEFFICIENT_KOC_L/KG_OPERA_PRED>
3702.77

>  <OCTANOL_WATER_PARTITION_LOGP_OPERA_PRED>
3.20234

>  <MELTING_POINT_DEGC_OPERA_PRED>
55.545

>  <VAPOR_PRESSURE_MMHG_OPERA_PRED>
0.00179273

>  <WATER_SOLUBILITY_MOL/L_OPERA_PRED>
0.00546193

$$$$
trans-Tetramethrin
Actelion Java MolfileCreator 2.0

  0  0  0  0  0  0              0 V3000
M  V30 BEGIN CTAB
M  V30 COUNTS 24 26 0 0 0
M  V30 BEGIN ATOM
M  V30 1 O 6.8783 1.3273 0.0 0
M  V30 2 C 6.5664 -0.1398 0.0 0
M  V30 3 N 5.1961 -0.75 0.0 0
M  V30 4 C 7.5701 -1.2546 0.0 0
M  V30 5 C 5.3529 -2.2417 0.0 0
M  V30 6 C 3.8971 0.0 0.0 0
M  V30 7 C 6.8201 -2.5536 0.0 0
M  V30 8 C 9.0701 -1.2546 0.0 0
M  V30 9 O 4.2382 -3.2454 0.0 0
M  V30 10 O 2.598 -0.75 0.0 0
M  V30 11 C 7.5701 -3.8526 0.0 0
M  V30 12 C 9.8201 -2.5536 0.0 0
M  V30 13 C 1.299 0.0 0.0 0
M  V30 14 C 9.0701 -3.8526 0.0 0
M  V30 15 O 1.299 1.5 0.0 0
M  V30 16 C 0.0 -0.75 0.0 0 CFG=1
M  V30 17 C -1.5 -0.75 0.0 0
M  V30 18 C -0.75 -2.049 0.0 0 CFG=2
M  V30 19 C -2.2499 0.549 0.0 0
M  V30 20 C -2.9999 -0.75 0.0 0
M  V30 21 C -0.75 -3.549 0.0 0
M  V30 22 C -2.049 -4.299 0.0 0
M  V30 23 C -3.348 -3.549 0.0 0
M  V30 24 C -2.049 -5.799 0.0 0
M  V30 END ATOM
M  V30 BEGIN BOND
M  V30 1 2 1 2
M  V30 2 1 2 3
M  V30 3 1 2 4
M  V30 4 1 3 5
M  V30 5 1 3 6
M  V30 6 2 4 7
M  V30 7 1 4 8
M  V30 8 2 5 9
M  V30 9 1 6 10
M  V30 10 1 7 11
M  V30 11 1 8 12
M  V30 12 1 10 13
M  V30 13 1 11 14
M  V30 14 2 13 15
M  V30 15 1 16 13 CFG=3
M  V30 16 1 16 17
M  V30 17 1 18 16
M  V30 18 1 17 19
M  V30 19 1 17 20
M  V30 20 1 18 21 CFG=1
M  V30 21 2 21 22
M  V30 22 1 22 23
M  V30 23 1 22 24
M  V30 24 1 5 7
M  V30 25 1 12 14
M  V30 26 1 17 18
M  V30 END BOND
M  V30 BEGIN COLLECTION
M  V30 MDLV30/STEABS ATOMS=(2 16 18)
M  V30 END COLLECTION
M  V30 END CTAB
M  END
>  <Order (spectra)>
77

>  <NAME>
trans-Tetramethrin

>  <Molecular Formula>
C19H25NO4

>  <Monoisotopic Mass>
331.178359

>  <SMILES>
CC(C)=C[C@@H]1[C@@H](C(=O)OCN2C(=O)C3=C(CCCC3)C2=O)C1(C)C

>  <InChI>
InChI=1S/C19H25NO4/c1-11(2)9-14-15(19(14,3)4)18(23)24-10-20-16(21)12-7-5-6-8-13(12)17(20)22/h9,14-15H,5-8,10H2,1-4H3/t14-,15-/m0/s1

>  <InChIKey>
CXBMCYHAMVGWJQ-CABCVRRESA-N

>  <Kingdom>
Organic compounds

>  <Superclass>
Organoheterocyclic compounds

>  <Class>
Isoindoles and derivatives

>  <Subclass>
Isoindolines

>  <Parent Level 1>
Isoindolones

>  <Parent Level 2>


>  <Parent Level 3>


>  <cLogP>
2.9536

>  <cLogS>
-3.284

>  <Druglikeness>
-2.6054

>  <NP-class probability>
0.53

>  <SmilesFragFp 3>


>  <MS_READY_SMILES>
CC(C)=CC1C(C(=O)OCN2C(=O)C3=C(CCCC3)C2=O)C1(C)C

>  <MS_READY_InChI>
InChI=1S/C19H25NO4/c1-11(2)9-14-15(19(14,3)4)18(23)24-10-20-16(21)12-7-5-6-8-13(12)17(20)22/h9,14-15H,5-8,10H2,1-4H3

>  <QSAR_READY_SMILES>
CC(C)=CC1C(C(=O)OCN2C(=O)C3=C(CCCC3)C2=O)C1(C)C

>  <QSAR_READY_InChI>
InChI=1S/C19H25NO4/c1-11(2)9-14-15(19(14,3)4)18(23)24-10-20-16(21)12-7-5-6-8-13(12)17(20)22/h9,14-15H,5-8,10H2,1-4H3

>  <DTXSID>
DTXSID4058289

>  <DTXCID>
DTXCID1032274

>  <CASRN>
1166-46-7

>  <EXPOCAST_MEDIAN_EXPOSURE_PREDICTION_MG/KG-BW/DAY>
2.25E-07

>  <BIOCONCENTRATION_FACTOR_TEST_PRED>
164.816

>  <BOILING_POINT_DEGC_TEST_PRED>
393.976

>  <48HR_DAPHNIA_LC50_MOL/L_TEST_PRED>
2.62E-07

>  <DENSITY_G/CM^3_TEST_PRED>
1.193

>  <DEVTOX_TEST_PRED>
0.92

>  <96HR_FATHEAD_MINNOW_MOL/L_TEST_PRED>
2.20E-07

>  <FLASH_POINT_DEGC_TEST_PRED>
219.765

>  <MELTING_POINT_DEGC_TEST_PRED>
85.214

>  <AMES_MUTAGENICITY_TEST_PRED>
0.76

>  <ORAL_RAT_LD50_MOL/KG_TEST_PRED>
0.0150314

>  <SURFACE_TENSION_DYN/CM_TEST_PRED>
-

>  <THERMAL_CONDUCTIVITY_MW/(M*K)_TEST_PRED>
-

>  <TETRAHYMENA_PYRIFORMIS_IGC50_MOL/L_TEST_PRED>
-

>  <VISCOSITY_CP_CP_TEST_PRED>
-

>  <VAPOR_PRESSURE_MMHG_TEST_PRED>
4.23E-09

>  <WATER_SOLUBILITY_MOL/L_TEST_PRED>
4.71E-06

>  <ATMOSPHERIC_HYDROXYLATION_RATE_(AOH)_CM3/MOLECULE*SEC_OPERA_PRED>
1.46E-10

>  <BIOCONCENTRATION_FACTOR_OPERA_PRED>
8.81393

>  <BIODEGRADATION_HALF_LIFE_DAYS_DAYS_OPERA_PRED>
3.35399

>  <BOILING_POINT_DEGC_OPERA_PRED>
339.127

>  <HENRYS_LAW_ATM-M3/MOLE_OPERA_PRED>
9.76E-06

>  <OPERA_KM_DAYS_OPERA_PRED>
1.52109

>  <OCTANOL_AIR_PARTITION_COEFF_LOGKOA_OPERA_PRED>
11.5741

>  <SOIL_ADSORPTION_COEFFICIENT_KOC_L/KG_OPERA_PRED>
1791.04

>  <OCTANOL_WATER_PARTITION_LOGP_OPERA_PRED>
4.72729

>  <MELTING_POINT_DEGC_OPERA_PRED>
69.0098

>  <VAPOR_PRESSURE_MMHG_OPERA_PRED>
7.03E-06

>  <WATER_SOLUBILITY_MOL/L_OPERA_PRED>
6.49E-06

$$$$
17-beta-Estradiol
Actelion Java MolfileCreator 2.0

  0  0  0  0  0  0              0 V3000
M  V30 BEGIN CTAB
M  V30 COUNTS 20 23 0 0 0
M  V30 BEGIN ATOM
M  V30 1 O 1.4931 5.9671 0.0 0
M  V30 2 C 1.3886 4.9726 0.0 0
M  V30 3 C 2.1976 4.3848 0.0 0
M  V30 4 C 0.4751 4.5658 0.0 0
M  V30 5 C 2.0931 3.3903 0.0 0
M  V30 6 C 0.3705 3.5713 0.0 0
M  V30 7 C 1.1796 2.9835 0.0 0
M  V30 8 C 2.9021 2.8025 0.0 0
M  V30 9 C 1.075 1.989 0.0 0 CFG=2
M  V30 10 C 2.7976 1.8079 0.0 0
M  V30 11 C 1.884 1.4012 0.0 0
M  V30 12 C 0.1615 1.5823 0.0 0
M  V30 13 C 1.7795 0.4067 0.0 0 CFG=1
M  V30 14 C 0.057 0.5877 0.0 0
M  V30 15 C 0.866 0.0 0.0 0 CFG=2
M  V30 16 C 2.4487 -0.3364 0.0 0
M  V30 17 C 0.9705 -0.9945 0.0 0 CFG=2
M  V30 18 C 0.0 -0.5 0.0 0
M  V30 19 C 1.9487 -1.2024 0.0 0
M  V30 20 O 0.2274 -1.6636 0.0 0
M  V30 END ATOM
M  V30 BEGIN BOND
M  V30 1 1 1 2
M  V30 2 2 2 3
M  V30 3 1 2 4
M  V30 4 1 3 5
M  V30 5 2 4 6
M  V30 6 2 5 7
M  V30 7 1 5 8
M  V30 8 1 9 7
M  V30 9 1 8 10
M  V30 10 1 9 11
M  V30 11 1 9 12 CFG=3
M  V30 12 1 13 11
M  V30 13 1 12 14
M  V30 14 1 15 13
M  V30 15 1 13 16 CFG=3
M  V30 16 1 17 15
M  V30 17 1 15 18 CFG=3
M  V30 18 1 16 19
M  V30 19 1 17 20 CFG=3
M  V30 20 1 6 7
M  V30 21 1 10 11
M  V30 22 1 14 15
M  V30 23 1 17 19
M  V30 END BOND
M  V30 BEGIN COLLECTION
M  V30 MDLV30/STEABS ATOMS=(4 9 13 15 17)
M  V30 END COLLECTION
M  V30 END CTAB
M  END
>  <Order (spectra)>
367

>  <NAME>
17-beta-Estradiol

>  <Molecular Formula>
C18H24O2

>  <Monoisotopic Mass>
272.17763

>  <SMILES>
[H][C@@]12CC[C@H](O)[C@@]1(C)CC[C@]1([H])C3=CC=C(O)C=C3CC[C@@]21[H]

>  <InChI>
InChI=1S/C18H24O2/c1-18-9-8-14-13-5-3-12(19)10-11(13)2-4-15(14)16(18)6-7-17(18)20/h3,5,10,14-17,19-20H,2,4,6-9H2,1H3/t14-,15?,16+,17-,18+/m1/s1

>  <InChIKey>
VOXZDWNPVJITMN-ZBRFXRBCSA-N

>  <Kingdom>
Organic compounds

>  <Superclass>
Lipids and lipid-like molecules

>  <Class>
Steroids and steroid derivatives

>  <Subclass>
Estrane steroids

>  <Parent Level 1>
Estrogens and derivatives

>  <Parent Level 2>


>  <Parent Level 3>


>  <cLogP>
3.8766

>  <cLogS>
-4.02

>  <Druglikeness>
0.10838

>  <NP-class probability>
1

>  <SmilesFragFp 3>


>  <MS_READY_SMILES>
CC12CCC3C(CCC4=C3C=CC(O)=C4)C1CCC2O

>  <MS_READY_InChI>
InChI=1S/C18H24O2/c1-18-9-8-14-13-5-3-12(19)10-11(13)2-4-15(14)16(18)6-7-17(18)20/h3,5,10,14-17,19-20H,2,4,6-9H2,1H3

>  <QSAR_READY_SMILES>
CC12CCC3C(CCC4=C3C=CC(O)=C4)C1CCC2O

>  <QSAR_READY_InChI>
InChI=1S/C18H24O2/c1-18-9-8-14-13-5-3-12(19)10-11(13)2-4-15(14)16(18)6-7-17(18)20/h3,5,10,14-17,19-20H,2,4,6-9H2,1H3

>  <DTXSID>
DTXSID0020573

>  <DTXCID>
DTXCID80573

>  <CASRN>
50-28-2

>  <EXPOCAST_MEDIAN_EXPOSURE_PREDICTION_MG/KG-BW/DAY>
-

>  <BIOCONCENTRATION_FACTOR_TEST_PRED>
160.694

>  <BOILING_POINT_DEGC_TEST_PRED>
378.806

>  <48HR_DAPHNIA_LC50_MOL/L_TEST_PRED>
1.16E-05

>  <DENSITY_G/CM^3_TEST_PRED>
1.158

>  <DEVTOX_TEST_PRED>
0.889

>  <96HR_FATHEAD_MINNOW_MOL/L_TEST_PRED>
3.44E-06

>  <FLASH_POINT_DEGC_TEST_PRED>
201.082

>  <MELTING_POINT_DEGC_TEST_PRED>
179.618

>  <AMES_MUTAGENICITY_TEST_PRED>
0.33

>  <ORAL_RAT_LD50_MOL/KG_TEST_PRED>
0.00579429

>  <SURFACE_TENSION_DYN/CM_TEST_PRED>
44.443

>  <THERMAL_CONDUCTIVITY_MW/(M*K)_TEST_PRED>
137.714

>  <TETRAHYMENA_PYRIFORMIS_IGC50_MOL/L_TEST_PRED>
1.02E-05

>  <VISCOSITY_CP_CP_TEST_PRED>
-

>  <VAPOR_PRESSURE_MMHG_TEST_PRED>
2.03E-08

>  <WATER_SOLUBILITY_MOL/L_TEST_PRED>
4.70E-05

>  <ATMOSPHERIC_HYDROXYLATION_RATE_(AOH)_CM3/MOLECULE*SEC_OPERA_PRED>
1.66E-11

>  <BIOCONCENTRATION_FACTOR_OPERA_PRED>
40.8171

>  <BIODEGRADATION_HALF_LIFE_DAYS_DAYS_OPERA_PRED>
97.1681

>  <BOILING_POINT_DEGC_OPERA_PRED>
372.628

>  <HENRYS_LAW_ATM-M3/MOLE_OPERA_PRED>
3.75E-06

>  <OPERA_KM_DAYS_OPERA_PRED>
1.48967

>  <OCTANOL_AIR_PARTITION_COEFF_LOGKOA_OPERA_PRED>
9.15263

>  <SOIL_ADSORPTION_COEFFICIENT_KOC_L/KG_OPERA_PRED>
348684

>  <OCTANOL_WATER_PARTITION_LOGP_OPERA_PRED>
3.90868

>  <MELTING_POINT_DEGC_OPERA_PRED>
199.93

>  <VAPOR_PRESSURE_MMHG_OPERA_PRED>
3.42E-10

>  <WATER_SOLUBILITY_MOL/L_OPERA_PRED>
1.34E-05

$$$$
alpha-Amylcinnamyl alcohol
Actelion Java MolfileCreator 2.0

  0  0  0  0  0  0              0 V3000
M  V30 BEGIN CTAB
M  V30 COUNTS 15 15 0 0 0
M  V30 BEGIN ATOM
M  V30 1 O 6.0621 0.0 0.0 0
M  V30 2 C 5.1961 -0.5 0.0 0
M  V30 3 C 4.3301 0.0 0.0 0
M  V30 4 C 4.3301 1.0 0.0 0
M  V30 5 C 3.4641 -0.5 0.0 0
M  V30 6 C 5.1961 1.4999 0.0 0
M  V30 7 C 2.598 0.0 0.0 0
M  V30 8 C 5.1961 2.4999 0.0 0
M  V30 9 C 6.0621 0.9999 0.0 0
M  V30 10 C 1.732 -0.5 0.0 0
M  V30 11 C 6.0621 3.0 0.0 0
M  V30 12 C 6.9282 1.4999 0.0 0
M  V30 13 C 0.866 0.0 0.0 0
M  V30 14 C 6.9282 2.5 0.0 0
M  V30 15 C 0.0 -0.5 0.0 0
M  V30 END ATOM
M  V30 BEGIN BOND
M  V30 1 1 1 2
M  V30 2 1 2 3
M  V30 3 2 3 4
M  V30 4 1 3 5
M  V30 5 1 4 6
M  V30 6 1 5 7
M  V30 7 2 6 8
M  V30 8 1 6 9
M  V30 9 1 7 10
M  V30 10 1 8 11
M  V30 11 2 9 12
M  V30 12 1 10 13
M  V30 13 2 11 14
M  V30 14 1 13 15
M  V30 15 1 12 14
M  V30 END BOND
M  V30 END CTAB
M  END
>  <Order (spectra)>
132

>  <NAME>
alpha-Amylcinnamyl alcohol

>  <Molecular Formula>
C14H20O

>  <Monoisotopic Mass>
204.151415

>  <SMILES>
CCCCC/C(=C/C1=CC=CC=C1)/CO

>  <InChI>
InChI=1S/C14H20O/c1-2-3-5-10-14(12-15)11-13-8-6-4-7-9-13/h4,6-9,11,15H,2-3,5,10,12H2,1H3

>  <InChIKey>
LIPHCKNQPJXUQF-KAMYIIQDSA-N

>  <Kingdom>
Organic compounds

>  <Superclass>
Phenylpropanoids and polyketides

>  <Class>
Cinnamyl alcohols

>  <Subclass>


>  <Parent Level 1>
Cinnamyl alcohols

>  <Parent Level 2>


>  <Parent Level 3>


>  <cLogP>
4.2475

>  <cLogS>
-3.221

>  <Druglikeness>
-13.652

>  <NP-class probability>
0.89

>  <SmilesFragFp 3>


>  <MS_READY_SMILES>
-

>  <MS_READY_InChI>


>  <QSAR_READY_SMILES>
-

>  <QSAR_READY_InChI>


>  <DTXSID>
-

>  <DTXCID>
-

>  <CASRN>
-

>  <EXPOCAST_MEDIAN_EXPOSURE_PREDICTION_MG/KG-BW/DAY>
-

>  <BIOCONCENTRATION_FACTOR_TEST_PRED>
-

>  <BOILING_POINT_DEGC_TEST_PRED>
-

>  <48HR_DAPHNIA_LC50_MOL/L_TEST_PRED>
-

>  <DENSITY_G/CM^3_TEST_PRED>
-

>  <DEVTOX_TEST_PRED>
-

>  <96HR_FATHEAD_MINNOW_MOL/L_TEST_PRED>
-

>  <FLASH_POINT_DEGC_TEST_PRED>
-

>  <MELTING_POINT_DEGC_TEST_PRED>
-

>  <AMES_MUTAGENICITY_TEST_PRED>
-

>  <ORAL_RAT_LD50_MOL/KG_TEST_PRED>
-

>  <SURFACE_TENSION_DYN/CM_TEST_PRED>
-

>  <THERMAL_CONDUCTIVITY_MW/(M*K)_TEST_PRED>
-

>  <TETRAHYMENA_PYRIFORMIS_IGC50_MOL/L_TEST_PRED>
-

>  <VISCOSITY_CP_CP_TEST_PRED>
-

>  <VAPOR_PRESSURE_MMHG_TEST_PRED>
-

>  <WATER_SOLUBILITY_MOL/L_TEST_PRED>
-

>  <ATMOSPHERIC_HYDROXYLATION_RATE_(AOH)_CM3/MOLECULE*SEC_OPERA_PRED>
-

>  <BIOCONCENTRATION_FACTOR_OPERA_PRED>
-

>  <BIODEGRADATION_HALF_LIFE_DAYS_DAYS_OPERA_PRED>
-

>  <BOILING_POINT_DEGC_OPERA_PRED>
-

>  <HENRYS_LAW_ATM-M3/MOLE_OPERA_PRED>
-

>  <OPERA_KM_DAYS_OPERA_PRED>
-

>  <OCTANOL_AIR_PARTITION_COEFF_LOGKOA_OPERA_PRED>
-

>  <SOIL_ADSORPTION_COEFFICIENT_KOC_L/KG_OPERA_PRED>
-

>  <OCTANOL_WATER_PARTITION_LOGP_OPERA_PRED>
-

>  <MELTING_POINT_DEGC_OPERA_PRED>
-

>  <VAPOR_PRESSURE_MMHG_OPERA_PRED>
-

>  <WATER_SOLUBILITY_MOL/L_OPERA_PRED>
-

$$$$
Coumarin
Actelion Java MolfileCreator 2.0

  0  0  0  0  0  0              0 V3000
M  V30 BEGIN CTAB
M  V30 COUNTS 11 12 0 0 0
M  V30 BEGIN ATOM
M  V30 1 O 1.299 0.0 0.0 0
M  V30 2 C 0.0 -0.75 0.0 0
M  V30 3 O -1.299 0.0 0.0 0
M  V30 4 C 0.0 -2.2499 0.0 0
M  V30 5 C -2.598 -0.7499 0.0 0
M  V30 6 C -1.299 -2.9999 0.0 0
M  V30 7 C -2.598 -2.2499 0.0 0
M  V30 8 C -3.8971 0.0 0.0 0
M  V30 9 C -3.8971 -2.9999 0.0 0
M  V30 10 C -5.1961 -0.7499 0.0 0
M  V30 11 C -5.1961 -2.2499 0.0 0
M  V30 END ATOM
M  V30 BEGIN BOND
M  V30 1 2 1 2
M  V30 2 1 2 3
M  V30 3 1 2 4
M  V30 4 1 3 5
M  V30 5 2 4 6
M  V30 6 2 5 7
M  V30 7 1 5 8
M  V30 8 1 7 9
M  V30 9 2 8 10
M  V30 10 2 9 11
M  V30 11 1 6 7
M  V30 12 1 10 11
M  V30 END BOND
M  V30 END CTAB
M  END
>  <Order (spectra)>
145

>  <NAME>
Coumarin

>  <Molecular Formula>
C9H6O2

>  <Monoisotopic Mass>
146.03678

>  <SMILES>
O=C1OC2=C(C=CC=C2)C=C1

>  <InChI>
InChI=1S/C9H6O2/c10-9-6-5-7-3-1-2-4-8(7)11-9/h1-6H

>  <InChIKey>
ZYGHJZDHTFUPRJ-UHFFFAOYSA-N

>  <Kingdom>
Organic compounds

>  <Superclass>
Phenylpropanoids and polyketides

>  <Class>
Coumarins and derivatives

>  <Subclass>


>  <Parent Level 1>
Coumarins and derivatives

>  <Parent Level 2>


>  <Parent Level 3>


>  <cLogP>
1.4974

>  <cLogS>
-2.37

>  <Druglikeness>
-3.3182

>  <NP-class probability>
-

>  <SmilesFragFp 3>


>  <MS_READY_SMILES>
O=C1OC2=C(C=CC=C2)C=C1

>  <MS_READY_InChI>
InChI=1S/C9H6O2/c10-9-6-5-7-3-1-2-4-8(7)11-9/h1-6H

>  <QSAR_READY_SMILES>
O=C1OC2=C(C=CC=C2)C=C1

>  <QSAR_READY_InChI>
InChI=1S/C9H6O2/c10-9-6-5-7-3-1-2-4-8(7)11-9/h1-6H

>  <DTXSID>
DTXSID7020348

>  <DTXCID>
DTXCID50348

>  <CASRN>
91-64-5

>  <EXPOCAST_MEDIAN_EXPOSURE_PREDICTION_MG/KG-BW/DAY>
1.13E-04

>  <BIOCONCENTRATION_FACTOR_TEST_PRED>
-

>  <BOILING_POINT_DEGC_TEST_PRED>
290.271

>  <48HR_DAPHNIA_LC50_MOL/L_TEST_PRED>
0.000300608

>  <DENSITY_G/CM^3_TEST_PRED>
1.178

>  <DEVTOX_TEST_PRED>
0.426

>  <96HR_FATHEAD_MINNOW_MOL/L_TEST_PRED>
0.000148252

>  <FLASH_POINT_DEGC_TEST_PRED>
147.014

>  <MELTING_POINT_DEGC_TEST_PRED>
80.903

>  <AMES_MUTAGENICITY_TEST_PRED>
0.385

>  <ORAL_RAT_LD50_MOL/KG_TEST_PRED>
0.00833681

>  <SURFACE_TENSION_DYN/CM_TEST_PRED>
-

>  <THERMAL_CONDUCTIVITY_MW/(M*K)_TEST_PRED>
-

>  <TETRAHYMENA_PYRIFORMIS_IGC50_MOL/L_TEST_PRED>
6.19E-05

>  <VISCOSITY_CP_CP_TEST_PRED>
3.38065

>  <VAPOR_PRESSURE_MMHG_TEST_PRED>
0.00484172

>  <WATER_SOLUBILITY_MOL/L_TEST_PRED>
0.0118577

>  <ATMOSPHERIC_HYDROXYLATION_RATE_(AOH)_CM3/MOLECULE*SEC_OPERA_PRED>
4.37E-11

>  <BIOCONCENTRATION_FACTOR_OPERA_PRED>
12.6501

>  <BIODEGRADATION_HALF_LIFE_DAYS_DAYS_OPERA_PRED>
3.5583

>  <BOILING_POINT_DEGC_OPERA_PRED>
301.611

>  <HENRYS_LAW_ATM-M3/MOLE_OPERA_PRED>
5.04E-08

>  <OPERA_KM_DAYS_OPERA_PRED>
0.164382

>  <OCTANOL_AIR_PARTITION_COEFF_LOGKOA_OPERA_PRED>
5.71935

>  <SOIL_ADSORPTION_COEFFICIENT_KOC_L/KG_OPERA_PRED>
267.381

>  <OCTANOL_WATER_PARTITION_LOGP_OPERA_PRED>
1.39143

>  <MELTING_POINT_DEGC_OPERA_PRED>
68.7105

>  <VAPOR_PRESSURE_MMHG_OPERA_PRED>
0.000979981

>  <WATER_SOLUBILITY_MOL/L_OPERA_PRED>
0.0145818

$$$$
Benzyl cinnamate
Actelion Java MolfileCreator 2.0

  0  0  0  0  0  0              0 V3000
M  V30 BEGIN CTAB
M  V30 COUNTS 18 19 0 0 0
M  V30 BEGIN ATOM
M  V30 1 O 2.598 1.0 0.0 0
M  V30 2 C 2.598 0.0 0.0 0
M  V30 3 O 3.4641 -0.5 0.0 0
M  V30 4 C 1.732 -0.5 0.0 0
M  V30 5 C 4.3301 0.0 0.0 0
M  V30 6 C 0.866 0.0 0.0 0
M  V30 7 C 5.1961 -0.5 0.0 0
M  V30 8 C 0.0 -0.5 0.0 0
M  V30 9 C 5.1961 -1.5 0.0 0
M  V30 10 C 6.0621 0.0 0.0 0
M  V30 11 C -0.866 0.0 0.0 0
M  V30 12 C 0.0 -1.4999 0.0 0
M  V30 13 C 6.0621 -2.0 0.0 0
M  V30 14 C 6.9282 -0.5 0.0 0
M  V30 15 C -1.732 -0.4999 0.0 0
M  V30 16 C -0.866 -1.9999 0.0 0
M  V30 17 C 6.9282 -1.5 0.0 0
M  V30 18 C -1.732 -1.4999 0.0 0
M  V30 END ATOM
M  V30 BEGIN BOND
M  V30 1 2 1 2
M  V30 2 1 2 3
M  V30 3 1 2 4
M  V30 4 1 3 5
M  V30 5 2 4 6 CFG=2
M  V30 6 1 5 7
M  V30 7 1 6 8
M  V30 8 2 7 9
M  V30 9 1 7 10
M  V30 10 2 8 11
M  V30 11 1 8 12
M  V30 12 1 9 13
M  V30 13 2 10 14
M  V30 14 1 11 15
M  V30 15 2 12 16
M  V30 16 2 13 17
M  V30 17 2 15 18
M  V30 18 1 14 17
M  V30 19 1 16 18
M  V30 END BOND
M  V30 END CTAB
M  END
>  <Order (spectra)>
141

>  <NAME>
Benzyl cinnamate

>  <Molecular Formula>
C16H14O2

>  <Monoisotopic Mass>
238.09938

>  <SMILES>
O=C(OCC1=CC=CC=C1)C=CC1=CC=CC=C1

>  <InChI>
InChI=1S/C16H14O2/c17-16(12-11-14-7-3-1-4-8-14)18-13-15-9-5-2-6-10-15/h1-12H,13H2

>  <InChIKey>
NGHOLYJTSCBCGC-UHFFFAOYSA-N

>  <Kingdom>
Organic compounds

>  <Superclass>
Phenylpropanoids and polyketides

>  <Class>
Cinnamic acids and derivatives

>  <Subclass>
Cinnamic acid esters

>  <Parent Level 1>
Cinnamic acid esters

>  <Parent Level 2>


>  <Parent Level 3>


>  <cLogP>
3.3199

>  <cLogS>
-3.45

>  <Druglikeness>
-3.2032

>  <NP-class probability>
1

>  <SmilesFragFp 3>


>  <MS_READY_SMILES>
O=C(OCC1=CC=CC=C1)C=CC1=CC=CC=C1

>  <MS_READY_InChI>
InChI=1S/C16H14O2/c17-16(12-11-14-7-3-1-4-8-14)18-13-15-9-5-2-6-10-15/h1-12H,13H2

>  <QSAR_READY_SMILES>
O=C(OCC1=CC=CC=C1)C=CC1=CC=CC=C1

>  <QSAR_READY_InChI>
InChI=1S/C16H14O2/c17-16(12-11-14-7-3-1-4-8-14)18-13-15-9-5-2-6-10-15/h1-12H,13H2

>  <DTXSID>
DTXSID3041663

>  <DTXCID>
DTXCID1021663

>  <CASRN>
103-41-3

>  <EXPOCAST_MEDIAN_EXPOSURE_PREDICTION_MG/KG-BW/DAY>
2.28E-06

>  <BIOCONCENTRATION_FACTOR_TEST_PRED>
-

>  <BOILING_POINT_DEGC_TEST_PRED>
352.898

>  <48HR_DAPHNIA_LC50_MOL/L_TEST_PRED>
4.28E-05

>  <DENSITY_G/CM^3_TEST_PRED>
1.106

>  <DEVTOX_TEST_PRED>
0.439

>  <96HR_FATHEAD_MINNOW_MOL/L_TEST_PRED>
8.43E-07

>  <FLASH_POINT_DEGC_TEST_PRED>
220.45

>  <MELTING_POINT_DEGC_TEST_PRED>
45.355

>  <AMES_MUTAGENICITY_TEST_PRED>
-0.052

>  <ORAL_RAT_LD50_MOL/KG_TEST_PRED>
0.0223872

>  <SURFACE_TENSION_DYN/CM_TEST_PRED>
41.413

>  <THERMAL_CONDUCTIVITY_MW/(M*K)_TEST_PRED>
-

>  <TETRAHYMENA_PYRIFORMIS_IGC50_MOL/L_TEST_PRED>
2.24E-05

>  <VISCOSITY_CP_CP_TEST_PRED>
-

>  <VAPOR_PRESSURE_MMHG_TEST_PRED>
0.000069024

>  <WATER_SOLUBILITY_MOL/L_TEST_PRED>
0.000400867

>  <ATMOSPHERIC_HYDROXYLATION_RATE_(AOH)_CM3/MOLECULE*SEC_OPERA_PRED>
3.74E-11

>  <BIOCONCENTRATION_FACTOR_OPERA_PRED>
116.301

>  <BIODEGRADATION_HALF_LIFE_DAYS_DAYS_OPERA_PRED>
3.72639

>  <BOILING_POINT_DEGC_OPERA_PRED>
350.01

>  <HENRYS_LAW_ATM-M3/MOLE_OPERA_PRED>
1.83E-08

>  <OPERA_KM_DAYS_OPERA_PRED>
0.399423

>  <OCTANOL_AIR_PARTITION_COEFF_LOGKOA_OPERA_PRED>
8.20818

>  <SOIL_ADSORPTION_COEFFICIENT_KOC_L/KG_OPERA_PRED>
195.979

>  <OCTANOL_WATER_PARTITION_LOGP_OPERA_PRED>
3.62187

>  <MELTING_POINT_DEGC_OPERA_PRED>
39.1056

>  <VAPOR_PRESSURE_MMHG_OPERA_PRED>
1.00E-05

>  <WATER_SOLUBILITY_MOL/L_OPERA_PRED>
3.34E-05

$$$$
Acephate
Actelion Java MolfileCreator 2.0

  0  0  0  0  0  0              0 V3000
M  V30 BEGIN CTAB
M  V30 COUNTS 10 9 0 0 0
M  V30 BEGIN ATOM
M  V30 1 S 3.4641 -0.5 0.0 0
M  V30 2 P 2.598 0.0 0.0 0 CFG=2
M  V30 3 C 4.3301 0.0 0.0 0
M  V30 4 O 2.598 -1.0 0.0 0
M  V30 5 O 2.598 1.0 0.0 0
M  V30 6 N 1.732 -0.5 0.0 0
M  V30 7 C 3.4641 1.5 0.0 0
M  V30 8 C 0.866 0.0 0.0 0
M  V30 9 O 0.866 1.0 0.0 0
M  V30 10 C 0.0 -0.5 0.0 0
M  V30 END ATOM
M  V30 BEGIN BOND
M  V30 1 1 2 1 CFG=1
M  V30 2 1 1 3
M  V30 3 2 2 4
M  V30 4 1 2 5
M  V30 5 1 2 6
M  V30 6 1 5 7
M  V30 7 1 6 8
M  V30 8 2 8 9
M  V30 9 1 8 10
M  V30 END BOND
M  V30 BEGIN COLLECTION
M  V30 MDLV30/STERAC1 ATOMS=(1 2)
M  V30 END COLLECTION
M  V30 END CTAB
M  END
>  <Order (spectra)>
239

>  <NAME>
Acephate

>  <Molecular Formula>
C4H10NO3PS

>  <Monoisotopic Mass>
183.011901

>  <SMILES>
COP(=O)(NC(C)=O)SC

>  <InChI>
InChI=1S/C4H10NO3PS/c1-4(6)5-9(7,8-2)10-3/h1-3H3,(H,5,6,7)/t9-/m1/s1

>  <InChIKey>
YASYVMFAVPKPKE-UHFFFAOYSA-N

>  <Kingdom>
Organic compounds

>  <Superclass>
Organophosphorus compounds

>  <Class>
Organothiophosphorus compounds

>  <Subclass>


>  <Parent Level 1>
Organothiophosphorus compounds

>  <Parent Level 2>


>  <Parent Level 3>


>  <cLogP>
-0.0781

>  <cLogS>
-0.65

>  <Druglikeness>
-9.5688

>  <NP-class probability>
0.36

>  <SmilesFragFp 3>


>  <MS_READY_SMILES>
COP(=O)(NC(C)=O)SC

>  <MS_READY_InChI>
InChI=1S/C4H10NO3PS/c1-4(6)5-9(7,8-2)10-3/h1-3H3,(H,5,6,7)/t9-/m1/s1

>  <QSAR_READY_SMILES>
COP(=O)(NC(C)=O)SC

>  <QSAR_READY_InChI>
InChI=1S/C4H10NO3PS/c1-4(6)5-9(7,8-2)10-3/h1-3H3,(H,5,6,7)/t9-/m1/s1

>  <DTXSID>
DTXSID8023846

>  <DTXCID>
DTXCID503846

>  <CASRN>
30560-19-1

>  <EXPOCAST_MEDIAN_EXPOSURE_PREDICTION_MG/KG-BW/DAY>
1.90E-07

>  <BIOCONCENTRATION_FACTOR_TEST_PRED>
-

>  <BOILING_POINT_DEGC_TEST_PRED>
-

>  <48HR_DAPHNIA_LC50_MOL/L_TEST_PRED>
2.10E-05

>  <DENSITY_G/CM^3_TEST_PRED>
1.207

>  <DEVTOX_TEST_PRED>
0.743

>  <96HR_FATHEAD_MINNOW_MOL/L_TEST_PRED>
-

>  <FLASH_POINT_DEGC_TEST_PRED>
133.808

>  <MELTING_POINT_DEGC_TEST_PRED>
48.542

>  <AMES_MUTAGENICITY_TEST_PRED>
0.202

>  <ORAL_RAT_LD50_MOL/KG_TEST_PRED>
0.00199986

>  <SURFACE_TENSION_DYN/CM_TEST_PRED>
-

>  <THERMAL_CONDUCTIVITY_MW/(M*K)_TEST_PRED>
-

>  <TETRAHYMENA_PYRIFORMIS_IGC50_MOL/L_TEST_PRED>
-

>  <VISCOSITY_CP_CP_TEST_PRED>
-

>  <VAPOR_PRESSURE_MMHG_TEST_PRED>
-

>  <WATER_SOLUBILITY_MOL/L_TEST_PRED>
0.408319

>  <ATMOSPHERIC_HYDROXYLATION_RATE_(AOH)_CM3/MOLECULE*SEC_OPERA_PRED>
1.13E-11

>  <BIOCONCENTRATION_FACTOR_OPERA_PRED>
1.22245

>  <BIODEGRADATION_HALF_LIFE_DAYS_DAYS_OPERA_PRED>
3.55577

>  <BOILING_POINT_DEGC_OPERA_PRED>
286.783

>  <HENRYS_LAW_ATM-M3/MOLE_OPERA_PRED>
4.94E-09

>  <OPERA_KM_DAYS_OPERA_PRED>
0.108103

>  <OCTANOL_AIR_PARTITION_COEFF_LOGKOA_OPERA_PRED>
8.72198

>  <SOIL_ADSORPTION_COEFFICIENT_KOC_L/KG_OPERA_PRED>
2.01033

>  <OCTANOL_WATER_PARTITION_LOGP_OPERA_PRED>
-0.848194

>  <MELTING_POINT_DEGC_OPERA_PRED>
87.9791

>  <VAPOR_PRESSURE_MMHG_OPERA_PRED>
1.71E-06

>  <WATER_SOLUBILITY_MOL/L_OPERA_PRED>
4.38636

$$$$
Praziquantel
Actelion Java MolfileCreator 2.0

  0  0  0  0  0  0              0 V3000
M  V30 BEGIN CTAB
M  V30 COUNTS 23 26 0 0 0
M  V30 BEGIN ATOM
M  V30 1 O 2.598 -3.0 0.0 0
M  V30 2 C 2.598 -1.9999 0.0 0
M  V30 3 N 3.4641 -1.5 0.0 0
M  V30 4 C 1.732 -1.5 0.0 0
M  V30 5 C 3.4641 -0.5 0.0 0 CFG=2
M  V30 6 C 4.3301 -2.0 0.0 0
M  V30 7 N 1.732 -0.5 0.0 0
M  V30 8 C 4.3301 0.0 0.0 0
M  V30 9 C 2.598 0.0 0.0 0
M  V30 10 C 5.1961 -1.5 0.0 0
M  V30 11 C 0.866 0.0 0.0 0
M  V30 12 C 5.1961 -0.5 0.0 0
M  V30 13 C 4.3301 0.9999 0.0 0
M  V30 14 O 0.866 1.0 0.0 0
M  V30 15 C 0.0 -0.5 0.0 0
M  V30 16 C 6.0621 0.0 0.0 0
M  V30 17 C 5.1961 1.4999 0.0 0
M  V30 18 C -0.866 0.0 0.0 0
M  V30 19 C 0.0 -1.4999 0.0 0
M  V30 20 C 6.0621 0.9999 0.0 0
M  V30 21 C -1.732 -0.4999 0.0 0
M  V30 22 C -0.866 -1.9999 0.0 0
M  V30 23 C -1.732 -1.4999 0.0 0
M  V30 END ATOM
M  V30 BEGIN BOND
M  V30 1 2 1 2
M  V30 2 1 2 3
M  V30 3 1 2 4
M  V30 4 1 5 3 CFG=1
M  V30 5 1 3 6
M  V30 6 1 4 7
M  V30 7 1 5 8
M  V30 8 1 5 9
M  V30 9 1 6 10
M  V30 10 1 7 11
M  V30 11 2 8 12
M  V30 12 1 8 13
M  V30 13 2 11 14
M  V30 14 1 11 15
M  V30 15 1 12 16
M  V30 16 2 13 17
M  V30 17 1 15 18
M  V30 18 1 15 19
M  V30 19 2 16 20
M  V30 20 1 18 21
M  V30 21 1 19 22
M  V30 22 1 21 23
M  V30 23 1 7 9
M  V30 24 1 10 12
M  V30 25 1 17 20
M  V30 26 1 22 23
M  V30 END BOND
M  V30 BEGIN COLLECTION
M  V30 MDLV30/STERAC1 ATOMS=(1 5)
M  V30 END COLLECTION
M  V30 END CTAB
M  END
>  <Order (spectra)>
235

>  <NAME>
Praziquantel

>  <Molecular Formula>
C19H24N2O2

>  <Monoisotopic Mass>
312.183778

>  <SMILES>
O=C(C1CCCCC1)N1CC2N(CCC3=C2C=CC=C3)C(=O)C1

>  <InChI>
InChI=1S/C19H24N2O2/c22-18-13-20(19(23)15-7-2-1-3-8-15)12-17-16-9-5-4-6-14(16)10-11-21(17)18/h4-6,9,15,17H,1-3,7-8,10-13H2/t17-/m0/s1

>  <InChIKey>
FSVJFNAIGNNGKK-UHFFFAOYSA-N

>  <Kingdom>
Organic compounds

>  <Superclass>
Organoheterocyclic compounds

>  <Class>
Tetrahydroisoquinolines

>  <Subclass>


>  <Parent Level 1>
Tetrahydroisoquinolines

>  <Parent Level 2>


>  <Parent Level 3>


>  <cLogP>
2.5396

>  <cLogS>
-2.409

>  <Druglikeness>
-0.071538

>  <NP-class probability>
0.13

>  <SmilesFragFp 3>


>  <MS_READY_SMILES>
O=C(C1CCCCC1)N1CC2N(CCC3=C2C=CC=C3)C(=O)C1

>  <MS_READY_InChI>
InChI=1S/C19H24N2O2/c22-18-13-20(19(23)15-7-2-1-3-8-15)12-17-16-9-5-4-6-14(16)10-11-21(17)18/h4-6,9,15,17H,1-3,7-8,10-13H2/t17-/m0/s1

>  <QSAR_READY_SMILES>
O=C(C1CCCCC1)N1CC2N(CCC3=C2C=CC=C3)C(=O)C1

>  <QSAR_READY_InChI>
InChI=1S/C19H24N2O2/c22-18-13-20(19(23)15-7-2-1-3-8-15)12-17-16-9-5-4-6-14(16)10-11-21(17)18/h4-6,9,15,17H,1-3,7-8,10-13H2/t17-/m0/s1

>  <DTXSID>
DTXSID9021182

>  <DTXCID>
DTXCID501182

>  <CASRN>
55268-74-1

>  <EXPOCAST_MEDIAN_EXPOSURE_PREDICTION_MG/KG-BW/DAY>
9.86E-05

>  <BIOCONCENTRATION_FACTOR_TEST_PRED>
25.527

>  <BOILING_POINT_DEGC_TEST_PRED>
368.757

>  <48HR_DAPHNIA_LC50_MOL/L_TEST_PRED>
6.97E-05

>  <DENSITY_G/CM^3_TEST_PRED>
1.167

>  <DEVTOX_TEST_PRED>
0.93

>  <96HR_FATHEAD_MINNOW_MOL/L_TEST_PRED>
5.53E-06

>  <FLASH_POINT_DEGC_TEST_PRED>
246.113

>  <MELTING_POINT_DEGC_TEST_PRED>
154.884

>  <AMES_MUTAGENICITY_TEST_PRED>
0.505

>  <ORAL_RAT_LD50_MOL/KG_TEST_PRED>
0.00171396

>  <SURFACE_TENSION_DYN/CM_TEST_PRED>
-

>  <THERMAL_CONDUCTIVITY_MW/(M*K)_TEST_PRED>
-

>  <TETRAHYMENA_PYRIFORMIS_IGC50_MOL/L_TEST_PRED>
8.22E-05

>  <VISCOSITY_CP_CP_TEST_PRED>
-

>  <VAPOR_PRESSURE_MMHG_TEST_PRED>
7.01E-09

>  <WATER_SOLUBILITY_MOL/L_TEST_PRED>
0.00219786

>  <ATMOSPHERIC_HYDROXYLATION_RATE_(AOH)_CM3/MOLECULE*SEC_OPERA_PRED>
3.30E-11

>  <BIOCONCENTRATION_FACTOR_OPERA_PRED>
7.56114

>  <BIODEGRADATION_HALF_LIFE_DAYS_DAYS_OPERA_PRED>
7.649

>  <BOILING_POINT_DEGC_OPERA_PRED>
359.663

>  <HENRYS_LAW_ATM-M3/MOLE_OPERA_PRED>
7.08E-09

>  <OPERA_KM_DAYS_OPERA_PRED>
0.934891

>  <OCTANOL_AIR_PARTITION_COEFF_LOGKOA_OPERA_PRED>
11.5237

>  <SOIL_ADSORPTION_COEFFICIENT_KOC_L/KG_OPERA_PRED>
834.52

>  <OCTANOL_WATER_PARTITION_LOGP_OPERA_PRED>
1.74185

>  <MELTING_POINT_DEGC_OPERA_PRED>
136.001

>  <VAPOR_PRESSURE_MMHG_OPERA_PRED>
9.99E-09

>  <WATER_SOLUBILITY_MOL/L_OPERA_PRED>
0.00127889

$$$$
Tricyclazole
Actelion Java MolfileCreator 2.0

  0  0  0  0  0  0              0 V3000
M  V30 BEGIN CTAB
M  V30 COUNTS 13 15 0 0 0
M  V30 BEGIN ATOM
M  V30 1 S 1.5241 2.4781 0.0 0
M  V30 2 C 0.5296 2.5826 0.0 0
M  V30 3 C 1.732 1.5 0.0 0
M  V30 4 N -0.2135 3.2518 0.0 0
M  V30 5 N 0.1228 1.6691 0.0 0
M  V30 6 C 0.866 1.0 0.0 0
M  V30 7 C 2.598 0.9999 0.0 0
M  V30 8 N -1.0795 2.7518 0.0 0
M  V30 9 C -0.8716 1.7736 0.0 0
M  V30 10 C 0.866 0.0 0.0 0
M  V30 11 C 2.598 0.0 0.0 0
M  V30 12 C 1.732 -0.5 0.0 0
M  V30 13 C 0.0 -0.5 0.0 0
M  V30 END ATOM
M  V30 BEGIN BOND
M  V30 1 1 1 2
M  V30 2 1 1 3
M  V30 3 2 2 4
M  V30 4 1 2 5
M  V30 5 2 3 6
M  V30 6 1 3 7
M  V30 7 1 4 8
M  V30 8 1 5 9
M  V30 9 1 6 10
M  V30 10 2 7 11
M  V30 11 2 10 12
M  V30 12 1 10 13
M  V30 13 1 5 6
M  V30 14 2 8 9
M  V30 15 1 11 12
M  V30 END BOND
M  V30 END CTAB
M  END
>  <Order (spectra)>
330

>  <NAME>
Tricyclazole

>  <Molecular Formula>
C9H7N3S

>  <Monoisotopic Mass>
189.036067

>  <SMILES>
CC1=C2N3C=NN=C3SC2=CC=C1

>  <InChI>
InChI=1S/C9H7N3S/c1-6-3-2-4-7-8(6)12-5-10-11-9(12)13-7/h2-5H,1H3

>  <InChIKey>
DQJCHOQLCLEDLL-UHFFFAOYSA-N

>  <Kingdom>
Organic compounds

>  <Superclass>
Organoheterocyclic compounds

>  <Class>
Benzotriazoles

>  <Subclass>
Triazolobenzothiazoles

>  <Parent Level 1>
Triazolobenzothiazoles

>  <Parent Level 2>


>  <Parent Level 3>


>  <cLogP>
1.8635

>  <cLogS>
-2.08

>  <Druglikeness>
2.269

>  <NP-class probability>
0.02

>  <SmilesFragFp 3>


>  <MS_READY_SMILES>
CC1=C2N3C=NN=C3SC2=CC=C1

>  <MS_READY_InChI>
InChI=1S/C9H7N3S/c1-6-3-2-4-7-8(6)12-5-10-11-9(12)13-7/h2-5H,1H3

>  <QSAR_READY_SMILES>
CC1=C2N3C=NN=C3SC2=CC=C1

>  <QSAR_READY_InChI>
InChI=1S/C9H7N3S/c1-6-3-2-4-7-8(6)12-5-10-11-9(12)13-7/h2-5H,1H3

>  <DTXSID>
DTXSID7037478

>  <DTXCID>
DTXCID5017478

>  <CASRN>
41814-78-2

>  <EXPOCAST_MEDIAN_EXPOSURE_PREDICTION_MG/KG-BW/DAY>
3.98E-06

>  <BIOCONCENTRATION_FACTOR_TEST_PRED>
-

>  <BOILING_POINT_DEGC_TEST_PRED>
-

>  <48HR_DAPHNIA_LC50_MOL/L_TEST_PRED>
-

>  <DENSITY_G/CM^3_TEST_PRED>
-

>  <DEVTOX_TEST_PRED>
0.622

>  <96HR_FATHEAD_MINNOW_MOL/L_TEST_PRED>
-

>  <FLASH_POINT_DEGC_TEST_PRED>
-

>  <MELTING_POINT_DEGC_TEST_PRED>
152.002

>  <AMES_MUTAGENICITY_TEST_PRED>
-

>  <ORAL_RAT_LD50_MOL/KG_TEST_PRED>
0.00201837

>  <SURFACE_TENSION_DYN/CM_TEST_PRED>
-

>  <THERMAL_CONDUCTIVITY_MW/(M*K)_TEST_PRED>
-

>  <TETRAHYMENA_PYRIFORMIS_IGC50_MOL/L_TEST_PRED>
-

>  <VISCOSITY_CP_CP_TEST_PRED>
-

>  <VAPOR_PRESSURE_MMHG_TEST_PRED>
-

>  <WATER_SOLUBILITY_MOL/L_TEST_PRED>
8.00E-05

>  <ATMOSPHERIC_HYDROXYLATION_RATE_(AOH)_CM3/MOLECULE*SEC_OPERA_PRED>
8.74E-11

>  <BIOCONCENTRATION_FACTOR_OPERA_PRED>
7.88723

>  <BIODEGRADATION_HALF_LIFE_DAYS_DAYS_OPERA_PRED>
5.28475

>  <BOILING_POINT_DEGC_OPERA_PRED>
275.012

>  <HENRYS_LAW_ATM-M3/MOLE_OPERA_PRED>
6.51E-08

>  <OPERA_KM_DAYS_OPERA_PRED>
0.21717

>  <OCTANOL_AIR_PARTITION_COEFF_LOGKOA_OPERA_PRED>
7.43306

>  <SOIL_ADSORPTION_COEFFICIENT_KOC_L/KG_OPERA_PRED>
1232.84

>  <OCTANOL_WATER_PARTITION_LOGP_OPERA_PRED>
1.69993

>  <MELTING_POINT_DEGC_OPERA_PRED>
186.844

>  <VAPOR_PRESSURE_MMHG_OPERA_PRED>
2.01E-07

>  <WATER_SOLUBILITY_MOL/L_OPERA_PRED>
0.00661044

$$$$
1,1-Dibromo-2,3,3,4,4,5-hexachloro-2-cyclopenta-2,4-dien-1-ylcyclooctane
Actelion Java MolfileCreator 2.0

  0  0  0  0  0  0              0 V3000
M  V30 BEGIN CTAB
M  V30 COUNTS 21 22 0 0 0
M  V30 BEGIN ATOM
M  V30 1 Br 1.4287 -1.9742 0.0 0
M  V30 2 C 2.4896 -0.9133 0.0 0
M  V30 3 Br 2.8779 -2.3625 0.0 0
M  V30 4 C 1.2993 0.0 0.0 0
M  V30 5 C 3.9771 -0.7175 0.0 0
M  V30 6 Cl -0.0305 0.5834 0.0 0
M  V30 7 C 1.1035 1.4875 0.0 0
M  V30 8 C 0.0 -0.7501 0.0 0
M  V30 9 C 4.8905 0.4727 0.0 0
M  V30 10 Cl 0.0426 2.5484 0.0 0
M  V30 11 Cl -0.4084 1.1905 0.0 0
M  V30 12 C 2.0168 2.6778 0.0 0
M  V30 13 C -1.3706 -0.1399 0.0 0
M  V30 14 C -0.1568 -2.2423 0.0 0
M  V30 15 C 4.6946 1.9603 0.0 0
M  V30 16 Cl 2.0168 4.1781 0.0 0
M  V30 17 Cl 0.7175 3.4279 0.0 0
M  V30 18 C 3.5043 2.8736 0.0 0
M  V30 19 C -2.3745 -1.2549 0.0 0
M  V30 20 C -1.6243 -2.5542 0.0 0
M  V30 21 Cl 3.8927 4.3228 0.0 0
M  V30 END ATOM
M  V30 BEGIN BOND
M  V30 1 1 1 2
M  V30 2 1 2 3
M  V30 3 1 2 4
M  V30 4 1 2 5
M  V30 5 1 4 6
M  V30 6 1 4 7
M  V30 7 1 4 8
M  V30 8 1 5 9
M  V30 9 1 7 10
M  V30 10 1 7 11
M  V30 11 1 7 12
M  V30 12 1 8 13
M  V30 13 1 8 14
M  V30 14 1 9 15
M  V30 15 1 12 16
M  V30 16 1 12 17
M  V30 17 1 12 18
M  V30 18 2 13 19
M  V30 19 2 14 20
M  V30 20 1 18 21
M  V30 21 1 15 18
M  V30 22 1 19 20
M  V30 END BOND
M  V30 END CTAB
M  END
>  <Order (spectra)>
125

>  <NAME>
1,1-Dibromo-2,3,3,4,4,5-hexachloro-2-cyclopenta-2,4-dien-1-ylcyclooctane

>  <Molecular Formula>
C13H12Br2Cl6

>  <Monoisotopic Mass>
535.743684

>  <SMILES>
C1CC(C(C(C(C(C1)(Br)Br)(C2C=CC=C2)Cl)(Cl)Cl)(Cl)Cl)Cl

>  <InChI>
InChI=1S/C13H12Br2Cl6/c14-10(15)7-3-6-9(16)12(18,19)13(20,21)11(10,17)8-4-1-2-5-8/h1-2,4-5,8-9H,3,6-7H2

>  <InChIKey>
OZQOUGTVRWVFRK-UHFFFAOYSA-N

>  <Kingdom>
Organic compounds

>  <Superclass>
Organohalogen compounds

>  <Class>
Organochlorides

>  <Subclass>


>  <Parent Level 1>
Organochlorides

>  <Parent Level 2>


>  <Parent Level 3>


>  <cLogP>
7.3486

>  <cLogS>
-7.05

>  <Druglikeness>
-11.608

>  <NP-class probability>
0.55

>  <SmilesFragFp 3>


>  <MS_READY_SMILES>
-

>  <MS_READY_InChI>


>  <QSAR_READY_SMILES>
-

>  <QSAR_READY_InChI>


>  <DTXSID>
-

>  <DTXCID>
-

>  <CASRN>
-

>  <EXPOCAST_MEDIAN_EXPOSURE_PREDICTION_MG/KG-BW/DAY>
-

>  <BIOCONCENTRATION_FACTOR_TEST_PRED>
-

>  <BOILING_POINT_DEGC_TEST_PRED>
-

>  <48HR_DAPHNIA_LC50_MOL/L_TEST_PRED>
-

>  <DENSITY_G/CM^3_TEST_PRED>
-

>  <DEVTOX_TEST_PRED>
-

>  <96HR_FATHEAD_MINNOW_MOL/L_TEST_PRED>
-

>  <FLASH_POINT_DEGC_TEST_PRED>
-

>  <MELTING_POINT_DEGC_TEST_PRED>
-

>  <AMES_MUTAGENICITY_TEST_PRED>
-

>  <ORAL_RAT_LD50_MOL/KG_TEST_PRED>
-

>  <SURFACE_TENSION_DYN/CM_TEST_PRED>
-

>  <THERMAL_CONDUCTIVITY_MW/(M*K)_TEST_PRED>
-

>  <TETRAHYMENA_PYRIFORMIS_IGC50_MOL/L_TEST_PRED>
-

>  <VISCOSITY_CP_CP_TEST_PRED>
-

>  <VAPOR_PRESSURE_MMHG_TEST_PRED>
-

>  <WATER_SOLUBILITY_MOL/L_TEST_PRED>
-

>  <ATMOSPHERIC_HYDROXYLATION_RATE_(AOH)_CM3/MOLECULE*SEC_OPERA_PRED>
-

>  <BIOCONCENTRATION_FACTOR_OPERA_PRED>
-

>  <BIODEGRADATION_HALF_LIFE_DAYS_DAYS_OPERA_PRED>
-

>  <BOILING_POINT_DEGC_OPERA_PRED>
-

>  <HENRYS_LAW_ATM-M3/MOLE_OPERA_PRED>
-

>  <OPERA_KM_DAYS_OPERA_PRED>
-

>  <OCTANOL_AIR_PARTITION_COEFF_LOGKOA_OPERA_PRED>
-

>  <SOIL_ADSORPTION_COEFFICIENT_KOC_L/KG_OPERA_PRED>
-

>  <OCTANOL_WATER_PARTITION_LOGP_OPERA_PRED>
-

>  <MELTING_POINT_DEGC_OPERA_PRED>
-

>  <VAPOR_PRESSURE_MMHG_OPERA_PRED>
-

>  <WATER_SOLUBILITY_MOL/L_OPERA_PRED>
-

$$$$
Terbufos
Actelion Java MolfileCreator 2.0

  0  0  0  0  0  0              0 V3000
M  V30 BEGIN CTAB
M  V30 COUNTS 15 14 0 0 0
M  V30 BEGIN ATOM
M  V30 1 S 3.4641 0.5 0.0 0
M  V30 2 P 3.4641 -0.5 0.0 0
M  V30 3 S 2.598 0.0 0.0 0
M  V30 4 O 4.3301 0.0 0.0 0
M  V30 5 O 3.4641 -1.5 0.0 0
M  V30 6 C 1.732 -0.5 0.0 0
M  V30 7 C 5.1961 -0.5 0.0 0
M  V30 8 C 2.598 -2.0 0.0 0
M  V30 9 S 0.866 0.0 0.0 0
M  V30 10 C 6.0621 0.0 0.0 0
M  V30 11 C 2.598 -3.0 0.0 0
M  V30 12 C 0.0 -0.5 0.0 0
M  V30 13 C 0.4999 -1.366 0.0 0
M  V30 14 C -0.866 -0.9999 0.0 0
M  V30 15 C -0.4999 0.366 0.0 0
M  V30 END ATOM
M  V30 BEGIN BOND
M  V30 1 2 1 2
M  V30 2 1 2 3
M  V30 3 1 2 4
M  V30 4 1 2 5
M  V30 5 1 3 6
M  V30 6 1 4 7
M  V30 7 1 5 8
M  V30 8 1 6 9
M  V30 9 1 7 10
M  V30 10 1 8 11
M  V30 11 1 9 12
M  V30 12 1 12 13
M  V30 13 1 12 14
M  V30 14 1 12 15
M  V30 END BOND
M  V30 END CTAB
M  END
>  <Order (spectra)>
214

>  <NAME>
Terbufos

>  <Molecular Formula>
C9H21O2PS3

>  <Monoisotopic Mass>
288.044127

>  <SMILES>
CCOP(=S)(OCC)SCSC(C)(C)C

>  <InChI>
InChI=1S/C9H21O2PS3/c1-6-10-12(13,11-7-2)15-8-14-9(3,4)5/h6-8H2,1-5H3

>  <InChIKey>
XLNZEKHULJKQBA-UHFFFAOYSA-N

>  <Kingdom>
Organic compounds

>  <Superclass>
Organic acids and derivatives

>  <Class>
Organic dithiophosphoric acids and derivatives

>  <Subclass>
Dithiophosphate O-esters

>  <Parent Level 1>
Dithiophosphate O-esters

>  <Parent Level 2>


>  <Parent Level 3>


>  <cLogP>
4.3685

>  <cLogS>
-4.301

>  <Druglikeness>
-18.095

>  <NP-class probability>
0.85

>  <SmilesFragFp 3>


>  <MS_READY_SMILES>
CCOP(=S)(OCC)SCSC(C)(C)C

>  <MS_READY_InChI>
InChI=1S/C9H21O2PS3/c1-6-10-12(13,11-7-2)15-8-14-9(3,4)5/h6-8H2,1-5H3

>  <QSAR_READY_SMILES>
CCOP(=S)(OCC)SCSC(C)(C)C

>  <QSAR_READY_InChI>
InChI=1S/C9H21O2PS3/c1-6-10-12(13,11-7-2)15-8-14-9(3,4)5/h6-8H2,1-5H3

>  <DTXSID>
DTXSID2022254

>  <DTXCID>
DTXCID702254

>  <CASRN>
13071-79-9

>  <EXPOCAST_MEDIAN_EXPOSURE_PREDICTION_MG/KG-BW/DAY>
1.88E-07

>  <BIOCONCENTRATION_FACTOR_TEST_PRED>
125.893

>  <BOILING_POINT_DEGC_TEST_PRED>
-

>  <48HR_DAPHNIA_LC50_MOL/L_TEST_PRED>
1.29E-08

>  <DENSITY_G/CM^3_TEST_PRED>
1.152

>  <DEVTOX_TEST_PRED>
-0.779

>  <96HR_FATHEAD_MINNOW_MOL/L_TEST_PRED>
3.51E-06

>  <FLASH_POINT_DEGC_TEST_PRED>
146.141

>  <MELTING_POINT_DEGC_TEST_PRED>
-17.094

>  <AMES_MUTAGENICITY_TEST_PRED>
0.005

>  <ORAL_RAT_LD50_MOL/KG_TEST_PRED>
5.78E-06

>  <SURFACE_TENSION_DYN/CM_TEST_PRED>
-

>  <THERMAL_CONDUCTIVITY_MW/(M*K)_TEST_PRED>
-

>  <TETRAHYMENA_PYRIFORMIS_IGC50_MOL/L_TEST_PRED>
-

>  <VISCOSITY_CP_CP_TEST_PRED>
-

>  <VAPOR_PRESSURE_MMHG_TEST_PRED>
0.000148594

>  <WATER_SOLUBILITY_MOL/L_TEST_PRED>
6.25E-05

>  <ATMOSPHERIC_HYDROXYLATION_RATE_(AOH)_CM3/MOLECULE*SEC_OPERA_PRED>
2.42E-11

>  <BIOCONCENTRATION_FACTOR_OPERA_PRED>
64.5379

>  <BIODEGRADATION_HALF_LIFE_DAYS_DAYS_OPERA_PRED>
347.914

>  <BOILING_POINT_DEGC_OPERA_PRED>
315.357

>  <HENRYS_LAW_ATM-M3/MOLE_OPERA_PRED>
4.63E-06

>  <OPERA_KM_DAYS_OPERA_PRED>
1.06163

>  <OCTANOL_AIR_PARTITION_COEFF_LOGKOA_OPERA_PRED>
9.78096

>  <SOIL_ADSORPTION_COEFFICIENT_KOC_L/KG_OPERA_PRED>
660.363

>  <OCTANOL_WATER_PARTITION_LOGP_OPERA_PRED>
4.47814

>  <MELTING_POINT_DEGC_OPERA_PRED>
-29.1609

>  <VAPOR_PRESSURE_MMHG_OPERA_PRED>
0.000317909

>  <WATER_SOLUBILITY_MOL/L_OPERA_PRED>
1.71E-05

$$$$
Pirimicarb
Actelion Java MolfileCreator 2.0

  0  0  0  0  0  0              0 V3000
M  V30 BEGIN CTAB
M  V30 COUNTS 17 17 0 0 0
M  V30 BEGIN ATOM
M  V30 1 O 1.732 -1.5 0.0 0
M  V30 2 C 1.732 -0.5 0.0 0
M  V30 3 O 2.598 0.0 0.0 0
M  V30 4 N 0.866 0.0 0.0 0
M  V30 5 C 3.4641 -0.5 0.0 0
M  V30 6 C 0.866 1.0 0.0 0
M  V30 7 C 0.0 -0.5 0.0 0
M  V30 8 N 3.4641 -1.5 0.0 0
M  V30 9 C 4.3301 0.0 0.0 0
M  V30 10 C 4.3301 -2.0 0.0 0
M  V30 11 C 5.1961 -0.5 0.0 0
M  V30 12 C 4.3301 0.9999 0.0 0
M  V30 13 N 5.1961 -1.5 0.0 0
M  V30 14 N 4.3301 -3.0 0.0 0
M  V30 15 C 6.0621 0.0 0.0 0
M  V30 16 C 3.4641 -3.5 0.0 0
M  V30 17 C 5.1961 -3.5 0.0 0
M  V30 END ATOM
M  V30 BEGIN BOND
M  V30 1 2 1 2
M  V30 2 1 2 3
M  V30 3 1 2 4
M  V30 4 1 3 5
M  V30 5 1 4 6
M  V30 6 1 4 7
M  V30 7 2 5 8
M  V30 8 1 5 9
M  V30 9 1 8 10
M  V30 10 2 9 11
M  V30 11 1 9 12
M  V30 12 2 10 13
M  V30 13 1 10 14
M  V30 14 1 11 15
M  V30 15 1 14 16
M  V30 16 1 14 17
M  V30 17 1 11 13
M  V30 END BOND
M  V30 END CTAB
M  END
>  <Order (spectra)>
263

>  <NAME>
Pirimicarb

>  <Molecular Formula>
C11H18N4O2

>  <Monoisotopic Mass>
238.142976

>  <SMILES>
CN(C)C(=O)OC1=C(C)C(C)=NC(=N1)N(C)C

>  <InChI>
InChI=1S/C11H18N4O2/c1-7-8(2)12-10(14(3)4)13-9(7)17-11(16)15(5)6/h1-6H3

>  <InChIKey>
YFGYUFNIOHWBOB-UHFFFAOYSA-N

>  <Kingdom>
Organic compounds

>  <Superclass>
Organic nitrogen compounds

>  <Class>
Organonitrogen compounds

>  <Subclass>
Amines

>  <Parent Level 1>
Tertiary amines

>  <Parent Level 2>
Tertiary alkylarylamines

>  <Parent Level 3>
Dialkylarylamines

>  <cLogP>
1.4377

>  <cLogS>
-2.273

>  <Druglikeness>
-2.2133

>  <NP-class probability>
0.16

>  <SmilesFragFp 3>


>  <MS_READY_SMILES>
CN(C)C(=O)OC1=C(C)C(C)=NC(=N1)N(C)C

>  <MS_READY_InChI>
InChI=1S/C11H18N4O2/c1-7-8(2)12-10(14(3)4)13-9(7)17-11(16)15(5)6/h1-6H3

>  <QSAR_READY_SMILES>
CN(C)C(=O)OC1=C(C)C(C)=NC(=N1)N(C)C

>  <QSAR_READY_InChI>
InChI=1S/C11H18N4O2/c1-7-8(2)12-10(14(3)4)13-9(7)17-11(16)15(5)6/h1-6H3

>  <DTXSID>
DTXSID1032569

>  <DTXCID>
DTXCID9012569

>  <CASRN>
23103-98-2

>  <EXPOCAST_MEDIAN_EXPOSURE_PREDICTION_MG/KG-BW/DAY>
3.48E-07

>  <BIOCONCENTRATION_FACTOR_TEST_PRED>
4.68813

>  <BOILING_POINT_DEGC_TEST_PRED>
316.863

>  <48HR_DAPHNIA_LC50_MOL/L_TEST_PRED>
5.13E-06

>  <DENSITY_G/CM^3_TEST_PRED>
1.134

>  <DEVTOX_TEST_PRED>
0.873

>  <96HR_FATHEAD_MINNOW_MOL/L_TEST_PRED>
0.000128825

>  <FLASH_POINT_DEGC_TEST_PRED>
159.4

>  <MELTING_POINT_DEGC_TEST_PRED>
92.423

>  <AMES_MUTAGENICITY_TEST_PRED>
0.68

>  <ORAL_RAT_LD50_MOL/KG_TEST_PRED>
0.000452898

>  <SURFACE_TENSION_DYN/CM_TEST_PRED>
-

>  <THERMAL_CONDUCTIVITY_MW/(M*K)_TEST_PRED>
-

>  <TETRAHYMENA_PYRIFORMIS_IGC50_MOL/L_TEST_PRED>
-

>  <VISCOSITY_CP_CP_TEST_PRED>
-

>  <VAPOR_PRESSURE_MMHG_TEST_PRED>
0.000020893

>  <WATER_SOLUBILITY_MOL/L_TEST_PRED>
0.00557186

>  <ATMOSPHERIC_HYDROXYLATION_RATE_(AOH)_CM3/MOLECULE*SEC_OPERA_PRED>
1.52E-11

>  <BIOCONCENTRATION_FACTOR_OPERA_PRED>
6.82077

>  <BIODEGRADATION_HALF_LIFE_DAYS_DAYS_OPERA_PRED>
3.81633

>  <BOILING_POINT_DEGC_OPERA_PRED>
310.369

>  <HENRYS_LAW_ATM-M3/MOLE_OPERA_PRED>
3.22E-09

>  <OPERA_KM_DAYS_OPERA_PRED>
0.603817

>  <OCTANOL_AIR_PARTITION_COEFF_LOGKOA_OPERA_PRED>
8.63262

>  <SOIL_ADSORPTION_COEFFICIENT_KOC_L/KG_OPERA_PRED>
79.5512

>  <OCTANOL_WATER_PARTITION_LOGP_OPERA_PRED>
1.6979

>  <MELTING_POINT_DEGC_OPERA_PRED>
90.5438

>  <VAPOR_PRESSURE_MMHG_OPERA_PRED>
7.27E-06

>  <WATER_SOLUBILITY_MOL/L_OPERA_PRED>
0.0116253

$$$$
Buprofezin
Actelion Java MolfileCreator 2.0

  0  0  0  0  0  0              0 V3000
M  V30 BEGIN CTAB
M  V30 COUNTS 21 22 0 0 0
M  V30 BEGIN ATOM
M  V30 1 S 3.9027 0.0 0.0 0
M  V30 2 C 2.6018 -0.751 0.0 0
M  V30 3 C 5.2036 -0.751 0.0 0
M  V30 4 N 1.3009 0.0 0.0 0
M  V30 5 N 2.6018 -2.2532 0.0 0
M  V30 6 N 5.2036 -2.2532 0.0 0
M  V30 7 C 0.0 -0.751 0.0 0
M  V30 8 C 3.9027 -3.0043 0.0 0
M  V30 9 C 1.3009 -3.0043 0.0 0
M  V30 10 C 6.5045 -3.0043 0.0 0
M  V30 11 C 0.8013 -1.9648 0.0 0
M  V30 12 C -1.3009 -1.5021 0.0 0
M  V30 13 C -0.751 0.5498 0.0 0
M  V30 14 O 3.9027 -4.5065 0.0 0
M  V30 15 C 0.0 -2.2532 0.0 0
M  V30 16 C 1.3009 -4.5065 0.0 0
M  V30 17 C 6.5045 -4.5065 0.0 0
M  V30 18 C 7.8054 -2.2532 0.0 0
M  V30 19 C 7.8054 -5.2575 0.0 0
M  V30 20 C 9.1064 -3.0043 0.0 0
M  V30 21 C 9.1064 -4.5065 0.0 0
M  V30 END ATOM
M  V30 BEGIN BOND
M  V30 1 1 1 2
M  V30 2 1 1 3
M  V30 3 2 2 4 CFG=2
M  V30 4 1 2 5
M  V30 5 1 3 6
M  V30 6 1 4 7
M  V30 7 1 5 8
M  V30 8 1 5 9
M  V30 9 1 6 10
M  V30 10 1 7 11
M  V30 11 1 7 12
M  V30 12 1 7 13
M  V30 13 2 8 14
M  V30 14 1 9 15
M  V30 15 1 9 16
M  V30 16 2 10 17
M  V30 17 1 10 18
M  V30 18 1 17 19
M  V30 19 2 18 20
M  V30 20 2 19 21
M  V30 21 1 6 8
M  V30 22 1 20 21
M  V30 END BOND
M  V30 END CTAB
M  END
>  <Order (spectra)>
314

>  <NAME>
Buprofezin

>  <Molecular Formula>
C16H23N3OS

>  <Monoisotopic Mass>
305.156182

>  <SMILES>
CC(C)N1C(SCN(C1=O)C1=CC=CC=C1)=NC(C)(C)C

>  <InChI>
InChI=1S/C16H23N3OS/c1-12(2)19-14(17-16(3,4)5)21-11-18(15(19)20)13-9-7-6-8-10-13/h6-10,12H,11H2,1-5H3

>  <InChIKey>
PRLVTUNWOQKEAI-UHFFFAOYSA-N

>  <Kingdom>
Organic compounds

>  <Superclass>
Organoheterocyclic compounds

>  <Class>
Thiadiazinanes

>  <Subclass>


>  <Parent Level 1>
Thiadiazinanes

>  <Parent Level 2>


>  <Parent Level 3>


>  <cLogP>
4.0091

>  <cLogS>
-5.008

>  <Druglikeness>
-1.8429

>  <NP-class probability>
0.07

>  <SmilesFragFp 3>


>  <MS_READY_SMILES>
CC(C)N1C(SCN(C1=O)C1=CC=CC=C1)=NC(C)(C)C

>  <MS_READY_InChI>
InChI=1S/C16H23N3OS/c1-12(2)19-14(17-16(3,4)5)21-11-18(15(19)20)13-9-7-6-8-10-13/h6-10,12H,11H2,1-5H3

>  <QSAR_READY_SMILES>
CC(C)N1C(SCN(C1=O)C1=CC=CC=C1)=NC(C)(C)C

>  <QSAR_READY_InChI>
InChI=1S/C16H23N3OS/c1-12(2)19-14(17-16(3,4)5)21-11-18(15(19)20)13-9-7-6-8-10-13/h6-10,12H,11H2,1-5H3

>  <DTXSID>
DTXSID8034401

>  <DTXCID>
DTXCID6014401

>  <CASRN>
69327-76-0

>  <EXPOCAST_MEDIAN_EXPOSURE_PREDICTION_MG/KG-BW/DAY>
6.68E-07

>  <BIOCONCENTRATION_FACTOR_TEST_PRED>
65.3131

>  <BOILING_POINT_DEGC_TEST_PRED>
-

>  <48HR_DAPHNIA_LC50_MOL/L_TEST_PRED>
3.85E-05

>  <DENSITY_G/CM^3_TEST_PRED>
1.177

>  <DEVTOX_TEST_PRED>
0.248

>  <96HR_FATHEAD_MINNOW_MOL/L_TEST_PRED>
-

>  <FLASH_POINT_DEGC_TEST_PRED>
212.953

>  <MELTING_POINT_DEGC_TEST_PRED>
95.449

>  <AMES_MUTAGENICITY_TEST_PRED>
0.774

>  <ORAL_RAT_LD50_MOL/KG_TEST_PRED>
0.00420727

>  <SURFACE_TENSION_DYN/CM_TEST_PRED>
-

>  <THERMAL_CONDUCTIVITY_MW/(M*K)_TEST_PRED>
-

>  <TETRAHYMENA_PYRIFORMIS_IGC50_MOL/L_TEST_PRED>
-

>  <VISCOSITY_CP_CP_TEST_PRED>
-

>  <VAPOR_PRESSURE_MMHG_TEST_PRED>
3.80E-07

>  <WATER_SOLUBILITY_MOL/L_TEST_PRED>
5.01E-05

>  <ATMOSPHERIC_HYDROXYLATION_RATE_(AOH)_CM3/MOLECULE*SEC_OPERA_PRED>
1.38E-11

>  <BIOCONCENTRATION_FACTOR_OPERA_PRED>
52.49

>  <BIODEGRADATION_HALF_LIFE_DAYS_DAYS_OPERA_PRED>
6.89035

>  <BOILING_POINT_DEGC_OPERA_PRED>
353.763

>  <HENRYS_LAW_ATM-M3/MOLE_OPERA_PRED>
1.28E-07

>  <OPERA_KM_DAYS_OPERA_PRED>
0.14324

>  <OCTANOL_AIR_PARTITION_COEFF_LOGKOA_OPERA_PRED>
10.6306

>  <SOIL_ADSORPTION_COEFFICIENT_KOC_L/KG_OPERA_PRED>
1447.32

>  <OCTANOL_WATER_PARTITION_LOGP_OPERA_PRED>
4.29853

>  <MELTING_POINT_DEGC_OPERA_PRED>
104.939

>  <VAPOR_PRESSURE_MMHG_OPERA_PRED>
9.36E-06

>  <WATER_SOLUBILITY_MOL/L_OPERA_PRED>
2.11E-06

$$$$
2,3-Benzofluorene
Actelion Java MolfileCreator 2.0

  0  0  0  0  0  0              0 V3000
M  V30 BEGIN CTAB
M  V30 COUNTS 17 20 0 0 0
M  V30 BEGIN ATOM
M  V30 1 C -1.732 0.0 0.0 0
M  V30 2 C -1.732 -0.9999 0.0 0
M  V30 3 C -0.866 0.4999 0.0 0
M  V30 4 C -2.598 0.4999 0.0 0
M  V30 5 C -0.866 -1.5 0.0 0
M  V30 6 C -2.598 -1.4999 0.0 0
M  V30 7 C 0.0 0.0 0.0 0
M  V30 8 C -3.4641 0.0 0.0 0
M  V30 9 C 0.0 -1.0 0.0 0
M  V30 10 C -3.4641 -0.9999 0.0 0
M  V30 11 C 0.951 0.309 0.0 0
M  V30 12 C 0.951 -1.309 0.0 0
M  V30 13 C 1.5388 -0.5 0.0 0
M  V30 14 C 1.3577 1.2225 0.0 0
M  V30 15 C 2.5333 -0.3954 0.0 0
M  V30 16 C 2.3523 1.327 0.0 0
M  V30 17 C 2.9401 0.518 0.0 0
M  V30 END ATOM
M  V30 BEGIN BOND
M  V30 1 1 1 2
M  V30 2 1 1 3
M  V30 3 2 1 4
M  V30 4 1 2 5
M  V30 5 2 2 6
M  V30 6 2 3 7
M  V30 7 1 4 8
M  V30 8 2 5 9
M  V30 9 1 6 10
M  V30 10 1 7 11
M  V30 11 1 9 12
M  V30 12 2 11 13
M  V30 13 1 11 14
M  V30 14 1 13 15
M  V30 15 2 14 16
M  V30 16 2 15 17
M  V30 17 1 7 9
M  V30 18 2 8 10
M  V30 19 1 12 13
M  V30 20 1 16 17
M  V30 END BOND
M  V30 END CTAB
M  END
>  <Order (spectra)>
13

>  <NAME>
2,3-Benzofluorene

>  <Molecular Formula>
C17H12

>  <Monoisotopic Mass>
216.0939

>  <SMILES>
C1C2=CC=CC=C2C2=C1C=C1C=CC=CC1=C2

>  <InChI>
InChI=1S/C17H12/c1-2-6-13-11-17-15(9-12(13)5-1)10-14-7-3-4-8-16(14)17/h1-9,11H,10H2

>  <InChIKey>
HAPOJKSPCGLOOD-UHFFFAOYSA-N

>  <Kingdom>
Organic compounds

>  <Superclass>
Benzenoids

>  <Class>
Fluorenes

>  <Subclass>


>  <Parent Level 1>
Fluorenes

>  <Parent Level 2>


>  <Parent Level 3>


>  <cLogP>
4.8723

>  <cLogS>
-5.933

>  <Druglikeness>
-2.3702

>  <NP-class probability>
1

>  <SmilesFragFp 3>


>  <MS_READY_SMILES>
C1C2=CC=CC=C2C2=C1C=C1C=CC=CC1=C2

>  <MS_READY_InChI>
InChI=1S/C17H12/c1-2-6-13-11-17-15(9-12(13)5-1)10-14-7-3-4-8-16(14)17/h1-9,11H,10H2

>  <QSAR_READY_SMILES>
C1C2=CC=CC=C2C2=C1C=C1C=CC=CC1=C2

>  <QSAR_READY_InChI>
InChI=1S/C17H12/c1-2-6-13-11-17-15(9-12(13)5-1)10-14-7-3-4-8-16(14)17/h1-9,11H,10H2

>  <DTXSID>
DTXSID1022477

>  <DTXCID>
DTXCID902477

>  <CASRN>
243-17-4

>  <EXPOCAST_MEDIAN_EXPOSURE_PREDICTION_MG/KG-BW/DAY>
2.30E-06

>  <BIOCONCENTRATION_FACTOR_TEST_PRED>
688.652

>  <BOILING_POINT_DEGC_TEST_PRED>
383.639

>  <48HR_DAPHNIA_LC50_MOL/L_TEST_PRED>
1.45E-06

>  <DENSITY_G/CM^3_TEST_PRED>
1.163

>  <DEVTOX_TEST_PRED>
0.925

>  <96HR_FATHEAD_MINNOW_MOL/L_TEST_PRED>
7.03E-07

>  <FLASH_POINT_DEGC_TEST_PRED>
179.889

>  <MELTING_POINT_DEGC_TEST_PRED>
150.943

>  <AMES_MUTAGENICITY_TEST_PRED>
0.81

>  <ORAL_RAT_LD50_MOL/KG_TEST_PRED>
0.011722

>  <SURFACE_TENSION_DYN/CM_TEST_PRED>
-

>  <THERMAL_CONDUCTIVITY_MW/(M*K)_TEST_PRED>
127.962

>  <TETRAHYMENA_PYRIFORMIS_IGC50_MOL/L_TEST_PRED>
0.000013213

>  <VISCOSITY_CP_CP_TEST_PRED>
-

>  <VAPOR_PRESSURE_MMHG_TEST_PRED>
5.31E-07

>  <WATER_SOLUBILITY_MOL/L_TEST_PRED>
1.10E-07

>  <ATMOSPHERIC_HYDROXYLATION_RATE_(AOH)_CM3/MOLECULE*SEC_OPERA_PRED>
4.03E-11

>  <BIOCONCENTRATION_FACTOR_OPERA_PRED>
754.711

>  <BIODEGRADATION_HALF_LIFE_DAYS_DAYS_OPERA_PRED>
58.0793

>  <BOILING_POINT_DEGC_OPERA_PRED>
372.46

>  <HENRYS_LAW_ATM-M3/MOLE_OPERA_PRED>
1.09E-05

>  <OPERA_KM_DAYS_OPERA_PRED>
0.408669

>  <OCTANOL_AIR_PARTITION_COEFF_LOGKOA_OPERA_PRED>
8.51962

>  <SOIL_ADSORPTION_COEFFICIENT_KOC_L/KG_OPERA_PRED>
118811

>  <OCTANOL_WATER_PARTITION_LOGP_OPERA_PRED>
5.76704

>  <MELTING_POINT_DEGC_OPERA_PRED>
210.9

>  <VAPOR_PRESSURE_MMHG_OPERA_PRED>
5.54E-08

>  <WATER_SOLUBILITY_MOL/L_OPERA_PRED>
1.21E-08

$$$$
beta-Hexachlorocyclohexane
Actelion Java MolfileCreator 2.0

  0  0  0  0  0  0              0 V3000
M  V30 BEGIN CTAB
M  V30 COUNTS 12 12 0 0 0
M  V30 BEGIN ATOM
M  V30 1 Cl 1.299 0.0 0.0 0
M  V30 2 C 0.0 -0.75 0.0 0 CFG=1
M  V30 3 C -1.299 0.0 0.0 0 CFG=2
M  V30 4 C 0.0 -2.2499 0.0 0 CFG=1
M  V30 5 Cl -1.299 1.5 0.0 0
M  V30 6 C -2.598 -0.7499 0.0 0 CFG=1
M  V30 7 Cl 1.299 -3.0 0.0 0
M  V30 8 C -1.299 -2.9999 0.0 0 CFG=1
M  V30 9 Cl -3.8971 0.0 0.0 0
M  V30 10 C -2.598 -2.2499 0.0 0 CFG=1
M  V30 11 Cl -1.299 -4.4999 0.0 0
M  V30 12 Cl -3.8971 -2.9999 0.0 0
M  V30 END ATOM
M  V30 BEGIN BOND
M  V30 1 1 2 1 CFG=3
M  V30 2 1 3 2
M  V30 3 1 4 2
M  V30 4 1 3 5 CFG=1
M  V30 5 1 6 3
M  V30 6 1 4 7 CFG=1
M  V30 7 1 8 4
M  V30 8 1 6 9 CFG=3
M  V30 9 1 10 6
M  V30 10 1 8 11 CFG=3
M  V30 11 1 10 12 CFG=1
M  V30 12 1 8 10
M  V30 END BOND
M  V30 BEGIN COLLECTION
M  V30 MDLV30/STEABS ATOMS=(6 2 3 4 6 8 10)
M  V30 END COLLECTION
M  V30 END CTAB
M  END
>  <Order (spectra)>
45

>  <NAME>
beta-Hexachlorocyclohexane

>  <Molecular Formula>
C6H6Cl6

>  <Monoisotopic Mass>
287.860062

>  <SMILES>
Cl[C@H]1[C@H](Cl)[C@@H](Cl)[C@H](Cl)[C@@H](Cl)[C@@H]1Cl

>  <InChI>
InChI=1S/C6H6Cl6/c7-1-2(8)4(10)6(12)5(11)3(1)9/h1-6H

>  <InChIKey>
JLYXXMFPNIAWKQ-CDRYSYESSA-N

>  <Kingdom>
Organic compounds

>  <Superclass>
Organohalogen compounds

>  <Class>
Alkyl halides

>  <Subclass>
Cyclohexyl halides

>  <Parent Level 1>
Cyclohexyl halides

>  <Parent Level 2>


>  <Parent Level 3>


>  <cLogP>
3.762

>  <cLogS>
-4.112

>  <Druglikeness>
-0.92105

>  <NP-class probability>
0.79

>  <SmilesFragFp 3>


>  <MS_READY_SMILES>
ClC1C(Cl)C(Cl)C(Cl)C(Cl)C1Cl

>  <MS_READY_InChI>
InChI=1S/C6H6Cl6/c7-1-2(8)4(10)6(12)5(11)3(1)9/h1-6H

>  <QSAR_READY_SMILES>
ClC1C(Cl)C(Cl)C(Cl)C(Cl)C1Cl

>  <QSAR_READY_InChI>
InChI=1S/C6H6Cl6/c7-1-2(8)4(10)6(12)5(11)3(1)9/h1-6H

>  <DTXSID>
DTXSID7020685

>  <DTXCID>
DTXCID20196535

>  <CASRN>
319-85-7

>  <EXPOCAST_MEDIAN_EXPOSURE_PREDICTION_MG/KG-BW/DAY>
1.92E-10

>  <BIOCONCENTRATION_FACTOR_TEST_PRED>
157.761

>  <BOILING_POINT_DEGC_TEST_PRED>
272.3

>  <48HR_DAPHNIA_LC50_MOL/L_TEST_PRED>
4.38E-05

>  <DENSITY_G/CM^3_TEST_PRED>
1.579

>  <DEVTOX_TEST_PRED>
0.229

>  <96HR_FATHEAD_MINNOW_MOL/L_TEST_PRED>
2.12E-06

>  <FLASH_POINT_DEGC_TEST_PRED>
132.318

>  <MELTING_POINT_DEGC_TEST_PRED>
69.556

>  <AMES_MUTAGENICITY_TEST_PRED>
0.233

>  <ORAL_RAT_LD50_MOL/KG_TEST_PRED>
0.00127938

>  <SURFACE_TENSION_DYN/CM_TEST_PRED>
41.103

>  <THERMAL_CONDUCTIVITY_MW/(M*K)_TEST_PRED>
90.551

>  <TETRAHYMENA_PYRIFORMIS_IGC50_MOL/L_TEST_PRED>
-

>  <VISCOSITY_CP_CP_TEST_PRED>
10.3039

>  <VAPOR_PRESSURE_MMHG_TEST_PRED>
0.016293

>  <WATER_SOLUBILITY_MOL/L_TEST_PRED>
4.84E-05

>  <ATMOSPHERIC_HYDROXYLATION_RATE_(AOH)_CM3/MOLECULE*SEC_OPERA_PRED>
1.66E-13

>  <BIOCONCENTRATION_FACTOR_OPERA_PRED>
1100.89

>  <BIODEGRADATION_HALF_LIFE_DAYS_DAYS_OPERA_PRED>
18.6094

>  <BOILING_POINT_DEGC_OPERA_PRED>
236.383

>  <HENRYS_LAW_ATM-M3/MOLE_OPERA_PRED>
3.21E-06

>  <OPERA_KM_DAYS_OPERA_PRED>
31.0392

>  <OCTANOL_AIR_PARTITION_COEFF_LOGKOA_OPERA_PRED>
8.09186

>  <SOIL_ADSORPTION_COEFFICIENT_KOC_L/KG_OPERA_PRED>
1479.84

>  <OCTANOL_WATER_PARTITION_LOGP_OPERA_PRED>
3.71918

>  <MELTING_POINT_DEGC_OPERA_PRED>
76.7268

>  <VAPOR_PRESSURE_MMHG_OPERA_PRED>
4.24E-05

>  <WATER_SOLUBILITY_MOL/L_OPERA_PRED>
1.53E-05

$$$$