Perylene_2H12
Actelion Java MolfileCreator 2.0

  0  0  0  0  0  0              0 V3000
M  V30 BEGIN CTAB
M  V30 COUNTS 32 36 0 0 0
M  V30 BEGIN ATOM
M  V30 1 C 2.598 0.0 0.0 0
M  V30 2 C 1.732 -0.5 0.0 0
M  V30 3 C 3.4641 -0.4999 0.0 0
M  V30 4 C 2.598 0.9999 0.0 0
M  V30 5 C 1.732 -1.5 0.0 0
M  V30 6 C 0.866 0.0 0.0 0
M  V30 7 C 3.4641 -1.4999 0.0 0
M  V30 8 C 4.3301 0.0 0.0 0
M  V30 9 C 1.732 1.4999 0.0 0
M  V30 10 C 3.4641 1.4999 0.0 0
M  V30 11 C 2.598 -1.9999 0.0 0
M  V30 12 C 0.866 -2.0 0.0 0
M  V30 13 C 0.866 0.9999 0.0 0
M  V30 14 H 0.0 -0.5 0.0 0 MASS=2
M  V30 15 C 4.3301 -1.9999 0.0 0
M  V30 16 C 4.3301 0.9999 0.0 0
M  V30 17 H 5.1961 -0.5 0.0 0 MASS=2
M  V30 18 H 1.732 2.5 0.0 0 MASS=2
M  V30 19 H 3.4641 2.4999 0.0 0 MASS=2
M  V30 20 C 2.598 -3.0 0.0 0
M  V30 21 C 0.866 -3.0 0.0 0
M  V30 22 H 0.0 -1.5 0.0 0 MASS=2
M  V30 23 H 0.0 1.4999 0.0 0 MASS=2
M  V30 24 C 4.3301 -3.0 0.0 0
M  V30 25 H 5.1961 -1.4999 0.0 0 MASS=2
M  V30 26 H 5.1961 1.4999 0.0 0 MASS=2
M  V30 27 C 1.732 -3.5 0.0 0
M  V30 28 C 3.4641 -3.4999 0.0 0
M  V30 29 H 0.0 -3.5 0.0 0 MASS=2
M  V30 30 H 5.1961 -3.5 0.0 0 MASS=2
M  V30 31 H 1.732 -4.5 0.0 0 MASS=2
M  V30 32 H 3.4641 -4.5 0.0 0 MASS=2
M  V30 END ATOM
M  V30 BEGIN BOND
M  V30 1 1 1 2
M  V30 2 2 1 3
M  V30 3 1 1 4
M  V30 4 1 2 5
M  V30 5 2 2 6
M  V30 6 1 3 7
M  V30 7 1 3 8
M  V30 8 1 4 9
M  V30 9 2 4 10
M  V30 10 1 5 11
M  V30 11 2 5 12
M  V30 12 1 6 13
M  V30 13 1 6 14
M  V30 14 1 7 15
M  V30 15 2 8 16
M  V30 16 1 8 17
M  V30 17 1 9 18
M  V30 18 1 10 19
M  V30 19 1 11 20
M  V30 20 1 12 21
M  V30 21 1 12 22
M  V30 22 1 13 23
M  V30 23 2 15 24
M  V30 24 1 15 25
M  V30 25 1 16 26
M  V30 26 1 20 27
M  V30 27 2 20 28
M  V30 28 1 21 29
M  V30 29 1 24 30
M  V30 30 1 27 31
M  V30 31 1 28 32
M  V30 32 2 7 11
M  V30 33 2 9 13
M  V30 34 1 10 16
M  V30 35 2 21 27
M  V30 36 1 24 28
M  V30 END BOND
M  V30 END CTAB
M  END
>  <Order (spectra)>
1

>  <NAME>
Perylene_2H12

>  <Molecular Formula>
C20D12

>  <Monoisotopic Mass>
264.168

>  <SMILES>
[2H]C1=C([2H])C2=C3C(=C1[2H])C1=C([2H])C([2H])=C([2H])C4=C1C(=C([2H])C([2H])=C4[2H])C3=C([2H])C([2H])=C2[2H]

>  <InChI>
InChI=1S/C20H12/c1-5-13-6-2-11-17-18-12-4-8-14-7-3-10-16(20(14)18)15(9-1)19(13)17/h1-12H/i1D,2D,3D,4D,5D,6D,7D,8D,9D,10D,11D,12D

>  <InChIKey>
CSHWQDPOILHKBI-AQZSQYOVSA-N

>  <Kingdom>
Organic compounds

>  <Superclass>
Benzenoids

>  <Class>
Phenanthrenes and derivatives

>  <Subclass>


>  <Parent Level 1>
Phenanthrenes and derivatives

>  <Parent Level 2>


>  <Parent Level 3>


>  <cLogP>
5.7072

>  <cLogS>
-7.914

>  <Druglikeness>
-2.1841

>  <NP-class probability>
0.35

>  <SmilesFragFp 3>


>  <MS_READY_SMILES>
C1=CC2=C3C(=C1)C1=CC=CC4=C1C(=CC=C4)C3=CC=C2

>  <MS_READY_InChI>
InChI=1S/C20H12/c1-5-13-6-2-11-17-18-12-4-8-14-7-3-10-16(20(14)18)15(9-1)19(13)17/h1-12H

>  <QSAR_READY_SMILES>
C1=CC2=C3C(=C1)C1=CC=CC4=C1C(=CC=C4)C3=CC=C2

>  <QSAR_READY_InChI>
InChI=1S/C20H12/c1-5-13-6-2-11-17-18-12-4-8-14-7-3-10-16(20(14)18)15(9-1)19(13)17/h1-12H

>  <DTXSID>
DTXSID60934397

>  <DTXCID>
DTXCID601363045

>  <CASRN>
1520-96-3

>  <EXPOCAST_MEDIAN_EXPOSURE_PREDICTION_MG/KG-BW/DAY>
-

>  <BIOCONCENTRATION_FACTOR_TEST_PRED>
-

>  <BOILING_POINT_DEGC_TEST_PRED>
-

>  <48HR_DAPHNIA_LC50_MOL/L_TEST_PRED>
-

>  <DENSITY_G/CM^3_TEST_PRED>
-

>  <DEVTOX_TEST_PRED>
-

>  <96HR_FATHEAD_MINNOW_MOL/L_TEST_PRED>
-

>  <FLASH_POINT_DEGC_TEST_PRED>
-

>  <MELTING_POINT_DEGC_TEST_PRED>
-

>  <AMES_MUTAGENICITY_TEST_PRED>
-

>  <ORAL_RAT_LD50_MOL/KG_TEST_PRED>
-

>  <SURFACE_TENSION_DYN/CM_TEST_PRED>
-

>  <THERMAL_CONDUCTIVITY_MW/(M*K)_TEST_PRED>
-

>  <TETRAHYMENA_PYRIFORMIS_IGC50_MOL/L_TEST_PRED>
-

>  <VISCOSITY_CP_CP_TEST_PRED>
-

>  <VAPOR_PRESSURE_MMHG_TEST_PRED>
-

>  <WATER_SOLUBILITY_MOL/L_TEST_PRED>
-

>  <ATMOSPHERIC_HYDROXYLATION_RATE_(AOH)_CM3/MOLECULE*SEC_OPERA_PRED>
3.45E-11

>  <BIOCONCENTRATION_FACTOR_OPERA_PRED>
910.302

>  <BIODEGRADATION_HALF_LIFE_DAYS_DAYS_OPERA_PRED>
895.527

>  <BOILING_POINT_DEGC_OPERA_PRED>
486.93

>  <HENRYS_LAW_ATM-M3/MOLE_OPERA_PRED>
1.06E-06

>  <OPERA_KM_DAYS_OPERA_PRED>
0.871916

>  <OCTANOL_AIR_PARTITION_COEFF_LOGKOA_OPERA_PRED>
10.3435

>  <SOIL_ADSORPTION_COEFFICIENT_KOC_L/KG_OPERA_PRED>
549080

>  <OCTANOL_WATER_PARTITION_LOGP_OPERA_PRED>
6.04911

>  <MELTING_POINT_DEGC_OPERA_PRED>
225.812

>  <VAPOR_PRESSURE_MMHG_OPERA_PRED>
5.24E-09

>  <WATER_SOLUBILITY_MOL/L_OPERA_PRED>
2.34E-09

$$$$
2,4,6-Trichlorobiphenyl
Actelion Java MolfileCreator 2.0

  0  0  0  0  0  0              0 V3000
M  V30 BEGIN CTAB
M  V30 COUNTS 15 16 0 0 0
M  V30 BEGIN ATOM
M  V30 1 Cl 1.299 0.0 0.0 0
M  V30 2 C 0.0 -0.75 0.0 0
M  V30 3 C -1.299 0.0 0.0 0
M  V30 4 C 0.0 -2.2499 0.0 0
M  V30 5 C -2.598 -0.7499 0.0 0
M  V30 6 C -1.299 1.5 0.0 0
M  V30 7 C -1.299 -2.9999 0.0 0
M  V30 8 Cl -3.8971 0.0 0.0 0
M  V30 9 C -2.598 -2.2499 0.0 0
M  V30 10 C 0.0 2.2499 0.0 0
M  V30 11 C -2.598 2.25 0.0 0
M  V30 12 C 0.0 3.7499 0.0 0
M  V30 13 C -2.598 3.75 0.0 0
M  V30 14 C -1.299 4.5 0.0 0
M  V30 15 Cl -1.299 6.0 0.0 0
M  V30 END ATOM
M  V30 BEGIN BOND
M  V30 1 1 1 2
M  V30 2 2 2 3
M  V30 3 1 2 4
M  V30 4 1 3 5
M  V30 5 1 3 6
M  V30 6 2 4 7
M  V30 7 1 5 8
M  V30 8 2 5 9
M  V30 9 2 6 10
M  V30 10 1 6 11
M  V30 11 1 10 12
M  V30 12 2 11 13
M  V30 13 2 12 14
M  V30 14 1 14 15
M  V30 15 1 7 9
M  V30 16 1 13 14
M  V30 END BOND
M  V30 END CTAB
M  END
>  <Order (spectra)>
42

>  <NAME>
2,4,6-Trichlorobiphenyl

>  <Molecular Formula>
C12H7Cl3

>  <Monoisotopic Mass>
255.961331

>  <SMILES>
ClC1=CC=C(C=C1)C1=C(Cl)C=CC=C1Cl

>  <InChI>
InChI=1S/C12H7Cl3/c13-9-6-4-8(5-7-9)12-10(14)2-1-3-11(12)15/h1-7H

>  <InChIKey>
IHIDFKLAWYPTKB-UHFFFAOYSA-N

>  <Kingdom>
Organic compounds

>  <Superclass>
Benzenoids

>  <Class>
Benzene and substituted derivatives

>  <Subclass>
Biphenyls and derivatives

>  <Parent Level 1>
Chlorinated biphenyls

>  <Parent Level 2>
Polychlorinated biphenyls

>  <Parent Level 3>


>  <cLogP>
5.1368

>  <cLogS>
-5.91

>  <Druglikeness>
-1.9661

>  <NP-class probability>
0.01

>  <SmilesFragFp 3>


>  <MS_READY_SMILES>
ClC1=CC=C(C=C1)C1=C(Cl)C=CC=C1Cl

>  <MS_READY_InChI>
InChI=1S/C12H7Cl3/c13-9-6-4-8(5-7-9)12-10(14)2-1-3-11(12)15/h1-7H

>  <QSAR_READY_SMILES>
ClC1=CC=C(C=C1)C1=C(Cl)C=CC=C1Cl

>  <QSAR_READY_InChI>
InChI=1S/C12H7Cl3/c13-9-6-4-8(5-7-9)12-10(14)2-1-3-11(12)15/h1-7H

>  <DTXSID>
DTXSID8073500

>  <DTXCID>
DTXCID6039504

>  <CASRN>
38444-77-8

>  <EXPOCAST_MEDIAN_EXPOSURE_PREDICTION_MG/KG-BW/DAY>
7.65E-12

>  <BIOCONCENTRATION_FACTOR_TEST_PRED>
12416.5

>  <BOILING_POINT_DEGC_TEST_PRED>
327.515

>  <48HR_DAPHNIA_LC50_MOL/L_TEST_PRED>
2.26E-07

>  <DENSITY_G/CM^3_TEST_PRED>
1.337

>  <DEVTOX_TEST_PRED>
0.277

>  <96HR_FATHEAD_MINNOW_MOL/L_TEST_PRED>
7.05E-07

>  <FLASH_POINT_DEGC_TEST_PRED>
147.406

>  <MELTING_POINT_DEGC_TEST_PRED>
85.299

>  <AMES_MUTAGENICITY_TEST_PRED>
0.062

>  <ORAL_RAT_LD50_MOL/KG_TEST_PRED>
0.00110408

>  <SURFACE_TENSION_DYN/CM_TEST_PRED>
-

>  <THERMAL_CONDUCTIVITY_MW/(M*K)_TEST_PRED>
124.686

>  <TETRAHYMENA_PYRIFORMIS_IGC50_MOL/L_TEST_PRED>
2.13E-06

>  <VISCOSITY_CP_CP_TEST_PRED>
-

>  <VAPOR_PRESSURE_MMHG_TEST_PRED>
0.000297852

>  <WATER_SOLUBILITY_MOL/L_TEST_PRED>
9.31E-07

>  <ATMOSPHERIC_HYDROXYLATION_RATE_(AOH)_CM3/MOLECULE*SEC_OPERA_PRED>
1.12E-12

>  <BIOCONCENTRATION_FACTOR_OPERA_PRED>
16704

>  <BIODEGRADATION_HALF_LIFE_DAYS_DAYS_OPERA_PRED>
19.212

>  <BOILING_POINT_DEGC_OPERA_PRED>
343.69

>  <HENRYS_LAW_ATM-M3/MOLE_OPERA_PRED>
0.000200279

>  <OPERA_KM_DAYS_OPERA_PRED>
274.151

>  <OCTANOL_AIR_PARTITION_COEFF_LOGKOA_OPERA_PRED>
7.78147

>  <SOIL_ADSORPTION_COEFFICIENT_KOC_L/KG_OPERA_PRED>
55269.9

>  <OCTANOL_WATER_PARTITION_LOGP_OPERA_PRED>
5.74664

>  <MELTING_POINT_DEGC_OPERA_PRED>
83.0507

>  <VAPOR_PRESSURE_MMHG_OPERA_PRED>
0.000239262

>  <WATER_SOLUBILITY_MOL/L_OPERA_PRED>
6.95E-07

$$$$
2,3,4,5,6-Pentabromoethylbenzene
Actelion Java MolfileCreator 2.0

  0  0  0  0  0  0              0 V3000
M  V30 BEGIN CTAB
M  V30 COUNTS 13 13 0 0 0
M  V30 BEGIN ATOM
M  V30 1 Br 6.4951 -3.0 0.0 0
M  V30 2 C 5.1961 -2.2499 0.0 0
M  V30 3 C 5.1961 -0.75 0.0 0
M  V30 4 C 3.8971 -2.9999 0.0 0
M  V30 5 Br 6.4951 0.0 0.0 0
M  V30 6 C 3.8971 0.0 0.0 0
M  V30 7 Br 3.8971 -4.4999 0.0 0
M  V30 8 C 2.598 -2.25 0.0 0
M  V30 9 Br 3.8971 1.5 0.0 0
M  V30 10 C 2.598 -0.75 0.0 0
M  V30 11 Br 1.299 -2.9999 0.0 0
M  V30 12 C 1.299 0.0 0.0 0
M  V30 13 C 0.0 -0.75 0.0 0
M  V30 END ATOM
M  V30 BEGIN BOND
M  V30 1 1 1 2
M  V30 2 2 2 3
M  V30 3 1 2 4
M  V30 4 1 3 5
M  V30 5 1 3 6
M  V30 6 1 4 7
M  V30 7 2 4 8
M  V30 8 1 6 9
M  V30 9 2 6 10
M  V30 10 1 8 11
M  V30 11 1 10 12
M  V30 12 1 12 13
M  V30 13 1 8 10
M  V30 END BOND
M  V30 END CTAB
M  END
>  <Order (spectra)>
113

>  <NAME>
2,3,4,5,6-Pentabromoethylbenzene

>  <Molecular Formula>
C8H5Br5

>  <Monoisotopic Mass>
495.630805

>  <SMILES>
CCC1=C(Br)C(Br)=C(Br)C(Br)=C1Br

>  <InChI>
InChI=1S/C8H5Br5/c1-2-3-4(9)6(11)8(13)7(12)5(3)10/h2H2,1H3

>  <InChIKey>
FIAXCDIQXHJNIX-UHFFFAOYSA-N

>  <Kingdom>
Organic compounds

>  <Superclass>
Benzenoids

>  <Class>
Benzene and substituted derivatives

>  <Subclass>
Halobenzenes

>  <Parent Level 1>
Bromobenzenes

>  <Parent Level 2>


>  <Parent Level 3>


>  <cLogP>
6.0451

>  <cLogS>
-6.289

>  <Druglikeness>
-4.47

>  <NP-class probability>
0.71

>  <SmilesFragFp 3>


>  <MS_READY_SMILES>
CCC1=C(Br)C(Br)=C(Br)C(Br)=C1Br

>  <MS_READY_InChI>
InChI=1S/C8H5Br5/c1-2-3-4(9)6(11)8(13)7(12)5(3)10/h2H2,1H3

>  <QSAR_READY_SMILES>
CCC1=C(Br)C(Br)=C(Br)C(Br)=C1Br

>  <QSAR_READY_InChI>
InChI=1S/C8H5Br5/c1-2-3-4(9)6(11)8(13)7(12)5(3)10/h2H2,1H3

>  <DTXSID>
DTXSID7021782

>  <DTXCID>
DTXCID701782

>  <CASRN>
85-22-3

>  <EXPOCAST_MEDIAN_EXPOSURE_PREDICTION_MG/KG-BW/DAY>
1.45E-07

>  <BIOCONCENTRATION_FACTOR_TEST_PRED>
721.107

>  <BOILING_POINT_DEGC_TEST_PRED>
377.27

>  <48HR_DAPHNIA_LC50_MOL/L_TEST_PRED>
1.17E-07

>  <DENSITY_G/CM^3_TEST_PRED>
2.751

>  <DEVTOX_TEST_PRED>
-

>  <96HR_FATHEAD_MINNOW_MOL/L_TEST_PRED>
8.57E-08

>  <FLASH_POINT_DEGC_TEST_PRED>
170.729

>  <MELTING_POINT_DEGC_TEST_PRED>
174.488

>  <AMES_MUTAGENICITY_TEST_PRED>
-0.002

>  <ORAL_RAT_LD50_MOL/KG_TEST_PRED>
6.82E-05

>  <SURFACE_TENSION_DYN/CM_TEST_PRED>
-

>  <THERMAL_CONDUCTIVITY_MW/(M*K)_TEST_PRED>
102.648

>  <TETRAHYMENA_PYRIFORMIS_IGC50_MOL/L_TEST_PRED>
2.20E-06

>  <VISCOSITY_CP_CP_TEST_PRED>
11.1944

>  <VAPOR_PRESSURE_MMHG_TEST_PRED>
2.96E-07

>  <WATER_SOLUBILITY_MOL/L_TEST_PRED>
5.87E-09

>  <ATMOSPHERIC_HYDROXYLATION_RATE_(AOH)_CM3/MOLECULE*SEC_OPERA_PRED>
1.62E-12

>  <BIOCONCENTRATION_FACTOR_OPERA_PRED>
335.351

>  <BIODEGRADATION_HALF_LIFE_DAYS_DAYS_OPERA_PRED>
11.3238

>  <BOILING_POINT_DEGC_OPERA_PRED>
341.125

>  <HENRYS_LAW_ATM-M3/MOLE_OPERA_PRED>
0.000870523

>  <OPERA_KM_DAYS_OPERA_PRED>
1.04869

>  <OCTANOL_AIR_PARTITION_COEFF_LOGKOA_OPERA_PRED>
8.82765

>  <SOIL_ADSORPTION_COEFFICIENT_KOC_L/KG_OPERA_PRED>
82971.7

>  <OCTANOL_WATER_PARTITION_LOGP_OPERA_PRED>
5.61863

>  <MELTING_POINT_DEGC_OPERA_PRED>
138.398

>  <VAPOR_PRESSURE_MMHG_OPERA_PRED>
0.000965838

>  <WATER_SOLUBILITY_MOL/L_OPERA_PRED>
5.93E-10

$$$$
Terbufos
Actelion Java MolfileCreator 2.0

  0  0  0  0  0  0              0 V3000
M  V30 BEGIN CTAB
M  V30 COUNTS 15 14 0 0 0
M  V30 BEGIN ATOM
M  V30 1 S 3.4641 0.5 0.0 0
M  V30 2 P 3.4641 -0.5 0.0 0
M  V30 3 S 2.598 0.0 0.0 0
M  V30 4 O 4.3301 0.0 0.0 0
M  V30 5 O 3.4641 -1.5 0.0 0
M  V30 6 C 1.732 -0.5 0.0 0
M  V30 7 C 5.1961 -0.5 0.0 0
M  V30 8 C 2.598 -2.0 0.0 0
M  V30 9 S 0.866 0.0 0.0 0
M  V30 10 C 6.0621 0.0 0.0 0
M  V30 11 C 2.598 -3.0 0.0 0
M  V30 12 C 0.0 -0.5 0.0 0
M  V30 13 C 0.4999 -1.366 0.0 0
M  V30 14 C -0.866 -0.9999 0.0 0
M  V30 15 C -0.4999 0.366 0.0 0
M  V30 END ATOM
M  V30 BEGIN BOND
M  V30 1 2 1 2
M  V30 2 1 2 3
M  V30 3 1 2 4
M  V30 4 1 2 5
M  V30 5 1 3 6
M  V30 6 1 4 7
M  V30 7 1 5 8
M  V30 8 1 6 9
M  V30 9 1 7 10
M  V30 10 1 8 11
M  V30 11 1 9 12
M  V30 12 1 12 13
M  V30 13 1 12 14
M  V30 14 1 12 15
M  V30 END BOND
M  V30 END CTAB
M  END
>  <Order (spectra)>
214

>  <NAME>
Terbufos

>  <Molecular Formula>
C9H21O2PS3

>  <Monoisotopic Mass>
288.044127

>  <SMILES>
CCOP(=S)(OCC)SCSC(C)(C)C

>  <InChI>
InChI=1S/C9H21O2PS3/c1-6-10-12(13,11-7-2)15-8-14-9(3,4)5/h6-8H2,1-5H3

>  <InChIKey>
XLNZEKHULJKQBA-UHFFFAOYSA-N

>  <Kingdom>
Organic compounds

>  <Superclass>
Organic acids and derivatives

>  <Class>
Organic dithiophosphoric acids and derivatives

>  <Subclass>
Dithiophosphate O-esters

>  <Parent Level 1>
Dithiophosphate O-esters

>  <Parent Level 2>


>  <Parent Level 3>


>  <cLogP>
4.3685

>  <cLogS>
-4.301

>  <Druglikeness>
-18.095

>  <NP-class probability>
0.85

>  <SmilesFragFp 3>


>  <MS_READY_SMILES>
CCOP(=S)(OCC)SCSC(C)(C)C

>  <MS_READY_InChI>
InChI=1S/C9H21O2PS3/c1-6-10-12(13,11-7-2)15-8-14-9(3,4)5/h6-8H2,1-5H3

>  <QSAR_READY_SMILES>
CCOP(=S)(OCC)SCSC(C)(C)C

>  <QSAR_READY_InChI>
InChI=1S/C9H21O2PS3/c1-6-10-12(13,11-7-2)15-8-14-9(3,4)5/h6-8H2,1-5H3

>  <DTXSID>
DTXSID2022254

>  <DTXCID>
DTXCID702254

>  <CASRN>
13071-79-9

>  <EXPOCAST_MEDIAN_EXPOSURE_PREDICTION_MG/KG-BW/DAY>
1.88E-07

>  <BIOCONCENTRATION_FACTOR_TEST_PRED>
125.893

>  <BOILING_POINT_DEGC_TEST_PRED>
-

>  <48HR_DAPHNIA_LC50_MOL/L_TEST_PRED>
1.29E-08

>  <DENSITY_G/CM^3_TEST_PRED>
1.152

>  <DEVTOX_TEST_PRED>
-0.779

>  <96HR_FATHEAD_MINNOW_MOL/L_TEST_PRED>
3.51E-06

>  <FLASH_POINT_DEGC_TEST_PRED>
146.141

>  <MELTING_POINT_DEGC_TEST_PRED>
-17.094

>  <AMES_MUTAGENICITY_TEST_PRED>
0.005

>  <ORAL_RAT_LD50_MOL/KG_TEST_PRED>
5.78E-06

>  <SURFACE_TENSION_DYN/CM_TEST_PRED>
-

>  <THERMAL_CONDUCTIVITY_MW/(M*K)_TEST_PRED>
-

>  <TETRAHYMENA_PYRIFORMIS_IGC50_MOL/L_TEST_PRED>
-

>  <VISCOSITY_CP_CP_TEST_PRED>
-

>  <VAPOR_PRESSURE_MMHG_TEST_PRED>
0.000148594

>  <WATER_SOLUBILITY_MOL/L_TEST_PRED>
6.25E-05

>  <ATMOSPHERIC_HYDROXYLATION_RATE_(AOH)_CM3/MOLECULE*SEC_OPERA_PRED>
2.42E-11

>  <BIOCONCENTRATION_FACTOR_OPERA_PRED>
64.5379

>  <BIODEGRADATION_HALF_LIFE_DAYS_DAYS_OPERA_PRED>
347.914

>  <BOILING_POINT_DEGC_OPERA_PRED>
315.357

>  <HENRYS_LAW_ATM-M3/MOLE_OPERA_PRED>
4.63E-06

>  <OPERA_KM_DAYS_OPERA_PRED>
1.06163

>  <OCTANOL_AIR_PARTITION_COEFF_LOGKOA_OPERA_PRED>
9.78096

>  <SOIL_ADSORPTION_COEFFICIENT_KOC_L/KG_OPERA_PRED>
660.363

>  <OCTANOL_WATER_PARTITION_LOGP_OPERA_PRED>
4.47814

>  <MELTING_POINT_DEGC_OPERA_PRED>
-29.1609

>  <VAPOR_PRESSURE_MMHG_OPERA_PRED>
0.000317909

>  <WATER_SOLUBILITY_MOL/L_OPERA_PRED>
1.71E-05
