Perylene_2H12
Actelion Java MolfileCreator 2.0

  0  0  0  0  0  0              0 V3000
M  V30 BEGIN CTAB
M  V30 COUNTS 32 36 0 0 0
M  V30 BEGIN ATOM
M  V30 1 C 2.598 0.0 0.0 0
M  V30 2 C 1.732 -0.5 0.0 0
M  V30 3 C 3.4641 -0.4999 0.0 0
M  V30 4 C 2.598 0.9999 0.0 0
M  V30 5 C 1.732 -1.5 0.0 0
M  V30 6 C 0.866 0.0 0.0 0
M  V30 7 C 3.4641 -1.4999 0.0 0
M  V30 8 C 4.3301 0.0 0.0 0
M  V30 9 C 1.732 1.4999 0.0 0
M  V30 10 C 3.4641 1.4999 0.0 0
M  V30 11 C 2.598 -1.9999 0.0 0
M  V30 12 C 0.866 -2.0 0.0 0
M  V30 13 C 0.866 0.9999 0.0 0
M  V30 14 H 0.0 -0.5 0.0 0 MASS=2
M  V30 15 C 4.3301 -1.9999 0.0 0
M  V30 16 C 4.3301 0.9999 0.0 0
M  V30 17 H 5.1961 -0.5 0.0 0 MASS=2
M  V30 18 H 1.732 2.5 0.0 0 MASS=2
M  V30 19 H 3.4641 2.4999 0.0 0 MASS=2
M  V30 20 C 2.598 -3.0 0.0 0
M  V30 21 C 0.866 -3.0 0.0 0
M  V30 22 H 0.0 -1.5 0.0 0 MASS=2
M  V30 23 H 0.0 1.4999 0.0 0 MASS=2
M  V30 24 C 4.3301 -3.0 0.0 0
M  V30 25 H 5.1961 -1.4999 0.0 0 MASS=2
M  V30 26 H 5.1961 1.4999 0.0 0 MASS=2
M  V30 27 C 1.732 -3.5 0.0 0
M  V30 28 C 3.4641 -3.4999 0.0 0
M  V30 29 H 0.0 -3.5 0.0 0 MASS=2
M  V30 30 H 5.1961 -3.5 0.0 0 MASS=2
M  V30 31 H 1.732 -4.5 0.0 0 MASS=2
M  V30 32 H 3.4641 -4.5 0.0 0 MASS=2
M  V30 END ATOM
M  V30 BEGIN BOND
M  V30 1 1 1 2
M  V30 2 2 1 3
M  V30 3 1 1 4
M  V30 4 1 2 5
M  V30 5 2 2 6
M  V30 6 1 3 7
M  V30 7 1 3 8
M  V30 8 1 4 9
M  V30 9 2 4 10
M  V30 10 1 5 11
M  V30 11 2 5 12
M  V30 12 1 6 13
M  V30 13 1 6 14
M  V30 14 1 7 15
M  V30 15 2 8 16
M  V30 16 1 8 17
M  V30 17 1 9 18
M  V30 18 1 10 19
M  V30 19 1 11 20
M  V30 20 1 12 21
M  V30 21 1 12 22
M  V30 22 1 13 23
M  V30 23 2 15 24
M  V30 24 1 15 25
M  V30 25 1 16 26
M  V30 26 1 20 27
M  V30 27 2 20 28
M  V30 28 1 21 29
M  V30 29 1 24 30
M  V30 30 1 27 31
M  V30 31 1 28 32
M  V30 32 2 7 11
M  V30 33 2 9 13
M  V30 34 1 10 16
M  V30 35 2 21 27
M  V30 36 1 24 28
M  V30 END BOND
M  V30 END CTAB
M  END
>  <Order (spectra)>
1

>  <NAME>
Perylene_2H12

>  <Molecular Formula>
C20D12

>  <Monoisotopic Mass>
264.168

>  <SMILES>
[2H]C1=C([2H])C2=C3C(=C1[2H])C1=C([2H])C([2H])=C([2H])C4=C1C(=C([2H])C([2H])=C4[2H])C3=C([2H])C([2H])=C2[2H]

>  <InChI>
InChI=1S/C20H12/c1-5-13-6-2-11-17-18-12-4-8-14-7-3-10-16(20(14)18)15(9-1)19(13)17/h1-12H/i1D,2D,3D,4D,5D,6D,7D,8D,9D,10D,11D,12D

>  <InChIKey>
CSHWQDPOILHKBI-AQZSQYOVSA-N

>  <Kingdom>
Organic compounds

>  <Superclass>
Benzenoids

>  <Class>
Phenanthrenes and derivatives

>  <Subclass>


>  <Parent Level 1>
Phenanthrenes and derivatives

>  <Parent Level 2>


>  <Parent Level 3>


>  <cLogP>
5.7072

>  <cLogS>
-7.914

>  <Druglikeness>
-2.1841

>  <NP-class probability>
0.35

>  <SmilesFragFp 3>


>  <MS_READY_SMILES>
C1=CC2=C3C(=C1)C1=CC=CC4=C1C(=CC=C4)C3=CC=C2

>  <MS_READY_InChI>
InChI=1S/C20H12/c1-5-13-6-2-11-17-18-12-4-8-14-7-3-10-16(20(14)18)15(9-1)19(13)17/h1-12H

>  <QSAR_READY_SMILES>
C1=CC2=C3C(=C1)C1=CC=CC4=C1C(=CC=C4)C3=CC=C2

>  <QSAR_READY_InChI>
InChI=1S/C20H12/c1-5-13-6-2-11-17-18-12-4-8-14-7-3-10-16(20(14)18)15(9-1)19(13)17/h1-12H

>  <DTXSID>
DTXSID60934397

>  <DTXCID>
DTXCID601363045

>  <CASRN>
1520-96-3

>  <EXPOCAST_MEDIAN_EXPOSURE_PREDICTION_MG/KG-BW/DAY>
-

>  <BIOCONCENTRATION_FACTOR_TEST_PRED>
-

>  <BOILING_POINT_DEGC_TEST_PRED>
-

>  <48HR_DAPHNIA_LC50_MOL/L_TEST_PRED>
-

>  <DENSITY_G/CM^3_TEST_PRED>
-

>  <DEVTOX_TEST_PRED>
-

>  <96HR_FATHEAD_MINNOW_MOL/L_TEST_PRED>
-

>  <FLASH_POINT_DEGC_TEST_PRED>
-

>  <MELTING_POINT_DEGC_TEST_PRED>
-

>  <AMES_MUTAGENICITY_TEST_PRED>
-

>  <ORAL_RAT_LD50_MOL/KG_TEST_PRED>
-

>  <SURFACE_TENSION_DYN/CM_TEST_PRED>
-

>  <THERMAL_CONDUCTIVITY_MW/(M*K)_TEST_PRED>
-

>  <TETRAHYMENA_PYRIFORMIS_IGC50_MOL/L_TEST_PRED>
-

>  <VISCOSITY_CP_CP_TEST_PRED>
-

>  <VAPOR_PRESSURE_MMHG_TEST_PRED>
-

>  <WATER_SOLUBILITY_MOL/L_TEST_PRED>
-

>  <ATMOSPHERIC_HYDROXYLATION_RATE_(AOH)_CM3/MOLECULE*SEC_OPERA_PRED>
3.45E-11

>  <BIOCONCENTRATION_FACTOR_OPERA_PRED>
910.302

>  <BIODEGRADATION_HALF_LIFE_DAYS_DAYS_OPERA_PRED>
895.527

>  <BOILING_POINT_DEGC_OPERA_PRED>
486.93

>  <HENRYS_LAW_ATM-M3/MOLE_OPERA_PRED>
1.06E-06

>  <OPERA_KM_DAYS_OPERA_PRED>
0.871916

>  <OCTANOL_AIR_PARTITION_COEFF_LOGKOA_OPERA_PRED>
10.3435

>  <SOIL_ADSORPTION_COEFFICIENT_KOC_L/KG_OPERA_PRED>
549080

>  <OCTANOL_WATER_PARTITION_LOGP_OPERA_PRED>
6.04911

>  <MELTING_POINT_DEGC_OPERA_PRED>
225.812

>  <VAPOR_PRESSURE_MMHG_OPERA_PRED>
5.24E-09

>  <WATER_SOLUBILITY_MOL/L_OPERA_PRED>
2.34E-09

$$$$
Perylene
Actelion Java MolfileCreator 2.0

  0  0  0  0  0  0              0 V3000
M  V30 BEGIN CTAB
M  V30 COUNTS 20 24 0 0 0
M  V30 BEGIN ATOM
M  V30 1 C 0.0 0.0 0.0 0
M  V30 2 C 0.0 -1.0 0.0 0
M  V30 3 C 0.866 0.4999 0.0 0
M  V30 4 C -0.866 0.4999 0.0 0
M  V30 5 C 0.866 -1.5 0.0 0
M  V30 6 C -0.866 -1.4999 0.0 0
M  V30 7 C 1.732 0.0 0.0 0
M  V30 8 C 0.866 1.4999 0.0 0
M  V30 9 C -1.732 0.0 0.0 0
M  V30 10 C -0.866 1.5 0.0 0
M  V30 11 C 1.732 -0.9999 0.0 0
M  V30 12 C 0.866 -2.5 0.0 0
M  V30 13 C -1.732 -0.9999 0.0 0
M  V30 14 C 2.598 0.4999 0.0 0
M  V30 15 C 0.0 2.0 0.0 0
M  V30 16 C 2.598 -1.4999 0.0 0
M  V30 17 C 1.732 -3.0 0.0 0
M  V30 18 C 3.4641 0.0 0.0 0
M  V30 19 C 2.598 -2.5 0.0 0
M  V30 20 C 3.4641 -0.9999 0.0 0
M  V30 END ATOM
M  V30 BEGIN BOND
M  V30 1 1 1 2
M  V30 2 2 1 3
M  V30 3 1 1 4
M  V30 4 1 2 5
M  V30 5 2 2 6
M  V30 6 1 3 7
M  V30 7 1 3 8
M  V30 8 1 4 9
M  V30 9 2 4 10
M  V30 10 1 5 11
M  V30 11 2 5 12
M  V30 12 1 6 13
M  V30 13 1 7 14
M  V30 14 2 8 15
M  V30 15 1 11 16
M  V30 16 1 12 17
M  V30 17 2 14 18
M  V30 18 1 16 19
M  V30 19 2 16 20
M  V30 20 2 7 11
M  V30 21 2 9 13
M  V30 22 1 10 15
M  V30 23 2 17 19
M  V30 24 1 18 20
M  V30 END BOND
M  V30 END CTAB
M  END
>  <Order (spectra)>
2

>  <NAME>
Perylene

>  <Molecular Formula>
C20H12

>  <Monoisotopic Mass>
252.0939

>  <SMILES>
C1=CC2=C3C(=C1)C1=CC=CC4=C1C(=CC=C4)C3=CC=C2

>  <InChI>
InChI=1S/C20H12/c1-5-13-6-2-11-17-18-12-4-8-14-7-3-10-16(20(14)18)15(9-1)19(13)17/h1-12H

>  <InChIKey>
CSHWQDPOILHKBI-UHFFFAOYSA-N

>  <Kingdom>
Organic compounds

>  <Superclass>
Benzenoids

>  <Class>
Phenanthrenes and derivatives

>  <Subclass>


>  <Parent Level 1>
Phenanthrenes and derivatives

>  <Parent Level 2>


>  <Parent Level 3>


>  <cLogP>
5.7072

>  <cLogS>
-7.914

>  <Druglikeness>
-2.1841

>  <NP-class probability>
1

>  <SmilesFragFp 3>


>  <MS_READY_SMILES>
C1=CC2=C3C(=C1)C1=CC=CC4=C1C(=CC=C4)C3=CC=C2

>  <MS_READY_InChI>
InChI=1S/C20H12/c1-5-13-6-2-11-17-18-12-4-8-14-7-3-10-16(20(14)18)15(9-1)19(13)17/h1-12H

>  <QSAR_READY_SMILES>
C1=CC2=C3C(=C1)C1=CC=CC4=C1C(=CC=C4)C3=CC=C2

>  <QSAR_READY_InChI>
InChI=1S/C20H12/c1-5-13-6-2-11-17-18-12-4-8-14-7-3-10-16(20(14)18)15(9-1)19(13)17/h1-12H

>  <DTXSID>
DTXSID4047753

>  <DTXCID>
DTXCID9027736

>  <CASRN>
198-55-0

>  <EXPOCAST_MEDIAN_EXPOSURE_PREDICTION_MG/KG-BW/DAY>
1.82E-06

>  <BIOCONCENTRATION_FACTOR_TEST_PRED>
724.436

>  <BOILING_POINT_DEGC_TEST_PRED>
480.019

>  <48HR_DAPHNIA_LC50_MOL/L_TEST_PRED>
7.14E-07

>  <DENSITY_G/CM^3_TEST_PRED>
1.275

>  <DEVTOX_TEST_PRED>
0.355

>  <96HR_FATHEAD_MINNOW_MOL/L_TEST_PRED>
2.14E-07

>  <FLASH_POINT_DEGC_TEST_PRED>
230.615

>  <MELTING_POINT_DEGC_TEST_PRED>
207.823

>  <AMES_MUTAGENICITY_TEST_PRED>
1.037

>  <ORAL_RAT_LD50_MOL/KG_TEST_PRED>
-

>  <SURFACE_TENSION_DYN/CM_TEST_PRED>
44.403

>  <THERMAL_CONDUCTIVITY_MW/(M*K)_TEST_PRED>
-

>  <TETRAHYMENA_PYRIFORMIS_IGC50_MOL/L_TEST_PRED>
3.44E-06

>  <VISCOSITY_CP_CP_TEST_PRED>
-

>  <VAPOR_PRESSURE_MMHG_TEST_PRED>
4.49E-09

>  <WATER_SOLUBILITY_MOL/L_TEST_PRED>
7.74E-09

>  <ATMOSPHERIC_HYDROXYLATION_RATE_(AOH)_CM3/MOLECULE*SEC_OPERA_PRED>
3.45E-11

>  <BIOCONCENTRATION_FACTOR_OPERA_PRED>
910.302

>  <BIODEGRADATION_HALF_LIFE_DAYS_DAYS_OPERA_PRED>
895.527

>  <BOILING_POINT_DEGC_OPERA_PRED>
486.93

>  <HENRYS_LAW_ATM-M3/MOLE_OPERA_PRED>
1.06E-06

>  <OPERA_KM_DAYS_OPERA_PRED>
0.871916

>  <OCTANOL_AIR_PARTITION_COEFF_LOGKOA_OPERA_PRED>
10.3435

>  <SOIL_ADSORPTION_COEFFICIENT_KOC_L/KG_OPERA_PRED>
549080

>  <OCTANOL_WATER_PARTITION_LOGP_OPERA_PRED>
6.04911

>  <MELTING_POINT_DEGC_OPERA_PRED>
225.812

>  <VAPOR_PRESSURE_MMHG_OPERA_PRED>
5.24E-09

>  <WATER_SOLUBILITY_MOL/L_OPERA_PRED>
2.34E-09

$$$$
Flucythrinate
Actelion Java MolfileCreator 2.0

  0  0  0  0  0  0              0 V3000
M  V30 BEGIN CTAB
M  V30 COUNTS 33 35 0 0 0
M  V30 BEGIN ATOM
M  V30 1 F 3.4641 5.5 0.0 0
M  V30 2 C 3.4641 4.5 0.0 0
M  V30 3 F 4.3301 4.0 0.0 0
M  V30 4 O 2.598 4.0 0.0 0
M  V30 5 C 2.598 3.0 0.0 0
M  V30 6 C 1.732 2.5 0.0 0
M  V30 7 C 3.4641 2.5 0.0 0
M  V30 8 C 1.732 1.5 0.0 0
M  V30 9 C 3.4641 1.5 0.0 0
M  V30 10 C 2.598 1.0 0.0 0
M  V30 11 C 2.598 0.0 0.0 0
M  V30 12 C 1.732 -0.5 0.0 0
M  V30 13 C 3.4641 -0.5 0.0 0
M  V30 14 O 1.732 -1.5 0.0 0
M  V30 15 O 0.866 0.0 0.0 0
M  V30 16 C 4.3301 0.0 0.0 0
M  V30 17 C 3.4641 -1.5 0.0 0
M  V30 18 C 0.0 -0.5 0.0 0
M  V30 19 C -0.866 0.0 0.0 0
M  V30 20 C 0.0 -1.4999 0.0 0
M  V30 21 N -1.732 0.5 0.0 0
M  V30 22 C -0.866 -1.9999 0.0 0
M  V30 23 C 0.866 -1.9999 0.0 0
M  V30 24 C -0.866 -2.9999 0.0 0
M  V30 25 C 0.866 -3.0 0.0 0
M  V30 26 O -1.732 -3.4999 0.0 0
M  V30 27 C 0.0 -3.4999 0.0 0
M  V30 28 C -1.732 -4.4999 0.0 0
M  V30 29 C -2.598 -4.9999 0.0 0
M  V30 30 C -0.866 -4.9999 0.0 0
M  V30 31 C -2.598 -5.9999 0.0 0
M  V30 32 C -0.866 -6.0 0.0 0
M  V30 33 C -1.732 -6.4999 0.0 0
M  V30 END ATOM
M  V30 BEGIN BOND
M  V30 1 1 1 2
M  V30 2 1 2 3
M  V30 3 1 2 4
M  V30 4 1 4 5
M  V30 5 2 5 6
M  V30 6 1 5 7
M  V30 7 1 6 8
M  V30 8 2 7 9
M  V30 9 2 8 10
M  V30 10 1 10 11
M  V30 11 1 11 12
M  V30 12 1 11 13
M  V30 13 2 12 14
M  V30 14 1 12 15
M  V30 15 1 13 16
M  V30 16 1 13 17
M  V30 17 1 15 18
M  V30 18 1 18 19
M  V30 19 1 18 20
M  V30 20 3 19 21
M  V30 21 2 20 22
M  V30 22 1 20 23
M  V30 23 1 22 24
M  V30 24 2 23 25
M  V30 25 1 24 26
M  V30 26 2 24 27
M  V30 27 1 26 28
M  V30 28 2 28 29
M  V30 29 1 28 30
M  V30 30 1 29 31
M  V30 31 2 30 32
M  V30 32 2 31 33
M  V30 33 1 9 10
M  V30 34 1 25 27
M  V30 35 1 32 33
M  V30 END BOND
M  V30 END CTAB
M  END
>  <Order (spectra)>
84

>  <NAME>
Flucythrinate

>  <Molecular Formula>
C26H23NO4F2

>  <Monoisotopic Mass>
451.159515

>  <SMILES>
CC(C)C(C1=CC=C(C=C1)OC(F)F)C(=O)OC(C#N)C2=CC(=CC=C2)OC3=CC=CC=C3

>  <InChI>
InChI=1S/C26H23F2NO4/c1-17(2)24(18-11-13-21(14-12-18)32-26(27)28)25(30)33-23(16-29)19-7-6-10-22(15-19)31-20-8-4-3-5-9-20/h3-15,17,23-24,26H,1-2H3

>  <InChIKey>
GBIHOLCMZGAKNG-UHFFFAOYSA-N

>  <Kingdom>
Organic compounds

>  <Superclass>
Lipids and lipid-like molecules

>  <Class>
Fatty Acyls

>  <Subclass>
Fatty acid esters

>  <Parent Level 1>
Pyrethroids

>  <Parent Level 2>


>  <Parent Level 3>


>  <cLogP>
5.1863

>  <cLogS>
-6.981

>  <Druglikeness>
-8.752

>  <NP-class probability>
0.26

>  <SmilesFragFp 3>


>  <MS_READY_SMILES>
-

>  <MS_READY_InChI>


>  <QSAR_READY_SMILES>
-

>  <QSAR_READY_InChI>


>  <DTXSID>
-

>  <DTXCID>
-

>  <CASRN>
-

>  <EXPOCAST_MEDIAN_EXPOSURE_PREDICTION_MG/KG-BW/DAY>
-

>  <BIOCONCENTRATION_FACTOR_TEST_PRED>
-

>  <BOILING_POINT_DEGC_TEST_PRED>
-

>  <48HR_DAPHNIA_LC50_MOL/L_TEST_PRED>
-

>  <DENSITY_G/CM^3_TEST_PRED>
-

>  <DEVTOX_TEST_PRED>
-

>  <96HR_FATHEAD_MINNOW_MOL/L_TEST_PRED>
-

>  <FLASH_POINT_DEGC_TEST_PRED>
-

>  <MELTING_POINT_DEGC_TEST_PRED>
-

>  <AMES_MUTAGENICITY_TEST_PRED>
-

>  <ORAL_RAT_LD50_MOL/KG_TEST_PRED>
-

>  <SURFACE_TENSION_DYN/CM_TEST_PRED>
-

>  <THERMAL_CONDUCTIVITY_MW/(M*K)_TEST_PRED>
-

>  <TETRAHYMENA_PYRIFORMIS_IGC50_MOL/L_TEST_PRED>
-

>  <VISCOSITY_CP_CP_TEST_PRED>
-

>  <VAPOR_PRESSURE_MMHG_TEST_PRED>
-

>  <WATER_SOLUBILITY_MOL/L_TEST_PRED>
-

>  <ATMOSPHERIC_HYDROXYLATION_RATE_(AOH)_CM3/MOLECULE*SEC_OPERA_PRED>
-

>  <BIOCONCENTRATION_FACTOR_OPERA_PRED>
-

>  <BIODEGRADATION_HALF_LIFE_DAYS_DAYS_OPERA_PRED>
-

>  <BOILING_POINT_DEGC_OPERA_PRED>
-

>  <HENRYS_LAW_ATM-M3/MOLE_OPERA_PRED>
-

>  <OPERA_KM_DAYS_OPERA_PRED>
-

>  <OCTANOL_AIR_PARTITION_COEFF_LOGKOA_OPERA_PRED>
-

>  <SOIL_ADSORPTION_COEFFICIENT_KOC_L/KG_OPERA_PRED>
-

>  <OCTANOL_WATER_PARTITION_LOGP_OPERA_PRED>
-

>  <MELTING_POINT_DEGC_OPERA_PRED>
-

>  <VAPOR_PRESSURE_MMHG_OPERA_PRED>
-

>  <WATER_SOLUBILITY_MOL/L_OPERA_PRED>
-

$$$$
cis-Fenvalerate
Actelion Java MolfileCreator 2.0

  0  0  0  0  0  0              0 V3000
M  V30 BEGIN CTAB
M  V30 COUNTS 30 32 0 0 0
M  V30 BEGIN ATOM
M  V30 1 Cl 2.598 4.0 0.0 0
M  V30 2 C 2.598 3.0 0.0 0
M  V30 3 C 1.732 2.5 0.0 0
M  V30 4 C 3.4641 2.5 0.0 0
M  V30 5 C 1.732 1.4999 0.0 0
M  V30 6 C 3.4641 1.5 0.0 0
M  V30 7 C 2.598 1.0 0.0 0
M  V30 8 C 2.598 0.0 0.0 0 CFG=1
M  V30 9 C 1.732 -0.5 0.0 0
M  V30 10 C 3.4641 -0.5 0.0 0
M  V30 11 O 1.732 -1.5 0.0 0
M  V30 12 O 0.866 0.0 0.0 0
M  V30 13 C 4.3301 0.0 0.0 0
M  V30 14 C 3.4641 -1.5 0.0 0
M  V30 15 C 0.0 -0.5 0.0 0 CFG=2
M  V30 16 C -0.866 0.0 0.0 0
M  V30 17 C 0.0 -1.4999 0.0 0
M  V30 18 N -1.732 0.5 0.0 0
M  V30 19 C -0.866 -1.9999 0.0 0
M  V30 20 C 0.866 -1.9999 0.0 0
M  V30 21 C -0.866 -2.9999 0.0 0
M  V30 22 C 0.866 -3.0 0.0 0
M  V30 23 O -1.732 -3.4999 0.0 0
M  V30 24 C 0.0 -3.4999 0.0 0
M  V30 25 C -1.732 -4.4999 0.0 0
M  V30 26 C -2.598 -4.9999 0.0 0
M  V30 27 C -0.866 -4.9999 0.0 0
M  V30 28 C -2.598 -5.9999 0.0 0
M  V30 29 C -0.866 -6.0 0.0 0
M  V30 30 C -1.732 -6.4999 0.0 0
M  V30 END ATOM
M  V30 BEGIN BOND
M  V30 1 1 1 2
M  V30 2 2 2 3
M  V30 3 1 2 4
M  V30 4 1 3 5
M  V30 5 2 4 6
M  V30 6 2 5 7
M  V30 7 1 8 7 CFG=3
M  V30 8 1 8 9
M  V30 9 1 8 10
M  V30 10 2 9 11
M  V30 11 1 9 12
M  V30 12 1 10 13
M  V30 13 1 10 14
M  V30 14 1 15 12 CFG=1
M  V30 15 1 15 16
M  V30 16 1 15 17
M  V30 17 3 16 18
M  V30 18 2 17 19
M  V30 19 1 17 20
M  V30 20 1 19 21
M  V30 21 2 20 22
M  V30 22 1 21 23
M  V30 23 2 21 24
M  V30 24 1 23 25
M  V30 25 2 25 26
M  V30 26 1 25 27
M  V30 27 1 26 28
M  V30 28 2 27 29
M  V30 29 2 28 30
M  V30 30 1 6 7
M  V30 31 1 22 24
M  V30 32 1 29 30
M  V30 END BOND
M  V30 BEGIN COLLECTION
M  V30 MDLV30/STEABS ATOMS=(2 8 15)
M  V30 END COLLECTION
M  V30 END CTAB
M  END
>  <Order (spectra)>
85

>  <NAME>
cis-Fenvalerate

>  <Molecular Formula>
C25H22NO3Cl

>  <Monoisotopic Mass>
419.128821

>  <SMILES>
CC(C)[C@H](C(=O)O[C@H](C#N)C1=CC=CC(OC2=CC=CC=C2)=C1)C1=CC=C(Cl)C=C1

>  <InChI>
InChI=1S/C25H22ClNO3/c1-17(2)24(18-11-13-20(26)14-12-18)25(28)30-23(16-27)19-7-6-10-22(15-19)29-21-8-4-3-5-9-21/h3-15,17,23-24H,1-2H3/t23-,24+/m1/s1

>  <InChIKey>
NYPJDWWKZLNGGM-RPWUZVMVSA-N

>  <Kingdom>
Organic compounds

>  <Superclass>
Lipids and lipid-like molecules

>  <Class>
Fatty Acyls

>  <Subclass>
Fatty acid esters

>  <Parent Level 1>
Pyrethroids

>  <Parent Level 2>


>  <Parent Level 3>


>  <cLogP>
5.6229

>  <cLogS>
-7.095

>  <Druglikeness>
-5.9255

>  <NP-class probability>
0.67

>  <SmilesFragFp 3>


>  <MS_READY_SMILES>
CC(C)C(C(=O)OC(C#N)C1=CC=CC(OC2=CC=CC=C2)=C1)C1=CC=C(Cl)C=C1

>  <MS_READY_InChI>
InChI=1S/C25H22ClNO3/c1-17(2)24(18-11-13-20(26)14-12-18)25(28)30-23(16-27)19-7-6-10-22(15-19)29-21-8-4-3-5-9-21/h3-15,17,23-24H,1-2H3

>  <QSAR_READY_SMILES>
CC(C)C(C(=O)OC(C#N)C1=CC=CC(OC2=CC=CC=C2)=C1)C1=CC=C(Cl)C=C1

>  <QSAR_READY_InChI>
InChI=1S/C25H22ClNO3/c1-17(2)24(18-11-13-20(26)14-12-18)25(28)30-23(16-27)19-7-6-10-22(15-19)29-21-8-4-3-5-9-21/h3-15,17,23-24H,1-2H3

>  <DTXSID>
DTXSID4032667

>  <DTXCID>
DTXCID2012667

>  <CASRN>
66230-04-4

>  <EXPOCAST_MEDIAN_EXPOSURE_PREDICTION_MG/KG-BW/DAY>
1.11E-06

>  <BIOCONCENTRATION_FACTOR_TEST_PRED>
240.991

>  <BOILING_POINT_DEGC_TEST_PRED>
456.288

>  <48HR_DAPHNIA_LC50_MOL/L_TEST_PRED>
3.08E-09

>  <DENSITY_G/CM^3_TEST_PRED>
1.223

>  <DEVTOX_TEST_PRED>
0.75

>  <96HR_FATHEAD_MINNOW_MOL/L_TEST_PRED>
6.95E-09

>  <FLASH_POINT_DEGC_TEST_PRED>
285.904

>  <MELTING_POINT_DEGC_TEST_PRED>
85.445

>  <AMES_MUTAGENICITY_TEST_PRED>
0.3

>  <ORAL_RAT_LD50_MOL/KG_TEST_PRED>
0.000693426

>  <SURFACE_TENSION_DYN/CM_TEST_PRED>
-

>  <THERMAL_CONDUCTIVITY_MW/(M*K)_TEST_PRED>
152.593

>  <TETRAHYMENA_PYRIFORMIS_IGC50_MOL/L_TEST_PRED>
5.97E-07

>  <VISCOSITY_CP_CP_TEST_PRED>
-

>  <VAPOR_PRESSURE_MMHG_TEST_PRED>
1.31E-09

>  <WATER_SOLUBILITY_MOL/L_TEST_PRED>
2.82E-07

>  <ATMOSPHERIC_HYDROXYLATION_RATE_(AOH)_CM3/MOLECULE*SEC_OPERA_PRED>
2.50E-11

>  <BIOCONCENTRATION_FACTOR_OPERA_PRED>
707.188

>  <BIODEGRADATION_HALF_LIFE_DAYS_DAYS_OPERA_PRED>
3.54557

>  <BOILING_POINT_DEGC_OPERA_PRED>
434.889

>  <HENRYS_LAW_ATM-M3/MOLE_OPERA_PRED>
8.23E-08

>  <OPERA_KM_DAYS_OPERA_PRED>
4.89496

>  <OCTANOL_AIR_PARTITION_COEFF_LOGKOA_OPERA_PRED>
11.6877

>  <SOIL_ADSORPTION_COEFFICIENT_KOC_L/KG_OPERA_PRED>
5415.87

>  <OCTANOL_WATER_PARTITION_LOGP_OPERA_PRED>
6.1996

>  <MELTING_POINT_DEGC_OPERA_PRED>
52.3713

>  <VAPOR_PRESSURE_MMHG_OPERA_PRED>
1.50E-09

>  <WATER_SOLUBILITY_MOL/L_OPERA_PRED>
3.06E-09

$$$$
Progesterone
Actelion Java MolfileCreator 2.0

  0  0  0  0  0  0              0 V3000
M  V30 BEGIN CTAB
M  V30 COUNTS 23 26 0 0 0
M  V30 BEGIN ATOM
M  V30 1 O 12.7717 1.7313 0.0 0
M  V30 2 C 11.3045 1.4194 0.0 0
M  V30 3 C 10.8409 -0.0071 0.0 0
M  V30 4 C 10.3008 2.5341 0.0 0
M  V30 5 C 9.3737 -0.319 0.0 0
M  V30 6 C 8.8335 2.2222 0.0 0
M  V30 7 C 8.37 0.7957 0.0 0
M  V30 8 C 8.9102 -1.7455 0.0 0
M  V30 9 C 6.9028 0.4838 0.0 0 CFG=2
M  V30 10 C 7.3663 1.9104 0.0 0
M  V30 11 C 7.443 -2.0574 0.0 0
M  V30 12 C 6.4393 -0.9427 0.0 0 CFG=1
M  V30 13 C 5.8991 1.5985 0.0 0
M  V30 14 C 4.972 -1.2546 0.0 0 CFG=1
M  V30 15 C 4.4319 1.2866 0.0 0
M  V30 16 C 3.9683 -0.1398 0.0 0 CFG=2
M  V30 17 C 4.222 -2.5536 0.0 0
M  V30 18 C 2.598 -0.75 0.0 0 CFG=2
M  V30 19 C 2.8536 0.8638 0.0 0
M  V30 20 C 2.7548 -2.2417 0.0 0
M  V30 21 C 1.299 0.0 0.0 0
M  V30 22 O 1.299 1.5 0.0 0
M  V30 23 C 0.0 -0.75 0.0 0
M  V30 END ATOM
M  V30 BEGIN BOND
M  V30 1 2 1 2
M  V30 2 1 2 3
M  V30 3 1 2 4
M  V30 4 2 3 5
M  V30 5 1 4 6
M  V30 6 1 5 7
M  V30 7 1 5 8
M  V30 8 1 9 7
M  V30 9 1 7 10
M  V30 10 1 8 11
M  V30 11 1 12 9
M  V30 12 1 9 13 CFG=3
M  V30 13 1 14 12
M  V30 14 1 13 15
M  V30 15 1 16 14
M  V30 16 1 14 17 CFG=3
M  V30 17 1 18 16
M  V30 18 1 16 19 CFG=3
M  V30 19 1 17 20
M  V30 20 1 18 21 CFG=3
M  V30 21 2 21 22
M  V30 22 1 21 23
M  V30 23 1 6 7
M  V30 24 1 12 11 CFG=1
M  V30 25 1 15 16
M  V30 26 1 18 20
M  V30 END BOND
M  V30 BEGIN COLLECTION
M  V30 MDLV30/STEABS ATOMS=(5 9 12 14 16 18)
M  V30 END COLLECTION
M  V30 END CTAB
M  END
>  <Order (spectra)>
368

>  <NAME>
Progesterone

>  <Molecular Formula>
C21H30O2

>  <Monoisotopic Mass>
314.22458

>  <SMILES>
[H][C@@]12CC[C@H](C(C)=O)[C@@]1(C)CC[C@@]1([H])[C@@]2([H])CCC2=CC(=O)CC[C@]12C

>  <InChI>
InChI=1S/C21H30O2/c1-13(22)17-6-7-18-16-5-4-14-12-15(23)8-10-20(14,2)19(16)9-11-21(17,18)3/h12,16-19H,4-11H2,1-3H3/t16-,17+,18+,19+,20?,21-/m1/s1

>  <InChIKey>
RJKFOVLPORLFTN-LEKSSAKUSA-N

>  <Kingdom>
Organic compounds

>  <Superclass>
Lipids and lipid-like molecules

>  <Class>
Steroids and steroid derivatives

>  <Subclass>
Pregnane steroids

>  <Parent Level 1>
Gluco/mineralocorticoids, progestogins and derivatives

>  <Parent Level 2>


>  <Parent Level 3>


>  <cLogP>
4.019

>  <cLogS>
-4.542

>  <Druglikeness>
0.77149

>  <NP-class probability>
1

>  <SmilesFragFp 3>


>  <MS_READY_SMILES>
CC(=O)C1CCC2C3CCC4=CC(=O)CCC4(C)C3CCC12C

>  <MS_READY_InChI>
InChI=1S/C21H30O2/c1-13(22)17-6-7-18-16-5-4-14-12-15(23)8-10-20(14,2)19(16)9-11-21(17,18)3/h12,16-19H,4-11H2,1-3H3

>  <QSAR_READY_SMILES>
CC(=O)C1CCC2C3CCC4=CC(=O)CCC4(C)C3CCC12C

>  <QSAR_READY_InChI>
InChI=1S/C21H30O2/c1-13(22)17-6-7-18-16-5-4-14-12-15(23)8-10-20(14,2)19(16)9-11-21(17,18)3/h12,16-19H,4-11H2,1-3H3

>  <DTXSID>
DTXSID3022370

>  <DTXCID>
DTXCID902370

>  <CASRN>
57-83-0

>  <EXPOCAST_MEDIAN_EXPOSURE_PREDICTION_MG/KG-BW/DAY>
-

>  <BIOCONCENTRATION_FACTOR_TEST_PRED>
100.693

>  <BOILING_POINT_DEGC_TEST_PRED>
365.363

>  <48HR_DAPHNIA_LC50_MOL/L_TEST_PRED>
2.15E-05

>  <DENSITY_G/CM^3_TEST_PRED>
1.078

>  <DEVTOX_TEST_PRED>
0.941

>  <96HR_FATHEAD_MINNOW_MOL/L_TEST_PRED>
5.50E-06

>  <FLASH_POINT_DEGC_TEST_PRED>
195.178

>  <MELTING_POINT_DEGC_TEST_PRED>
152.508

>  <AMES_MUTAGENICITY_TEST_PRED>
-

>  <ORAL_RAT_LD50_MOL/KG_TEST_PRED>
0.00660693

>  <SURFACE_TENSION_DYN/CM_TEST_PRED>
43.316

>  <THERMAL_CONDUCTIVITY_MW/(M*K)_TEST_PRED>
-

>  <TETRAHYMENA_PYRIFORMIS_IGC50_MOL/L_TEST_PRED>
-

>  <VISCOSITY_CP_CP_TEST_PRED>
-

>  <VAPOR_PRESSURE_MMHG_TEST_PRED>
3.35E-07

>  <WATER_SOLUBILITY_MOL/L_TEST_PRED>
2.50E-05

>  <ATMOSPHERIC_HYDROXYLATION_RATE_(AOH)_CM3/MOLECULE*SEC_OPERA_PRED>
1.03E-10

>  <BIOCONCENTRATION_FACTOR_OPERA_PRED>
51.5128

>  <BIODEGRADATION_HALF_LIFE_DAYS_DAYS_OPERA_PRED>
97.4949

>  <BOILING_POINT_DEGC_OPERA_PRED>
326.139

>  <HENRYS_LAW_ATM-M3/MOLE_OPERA_PRED>
1.30E-06

>  <OPERA_KM_DAYS_OPERA_PRED>
54.4184

>  <OCTANOL_AIR_PARTITION_COEFF_LOGKOA_OPERA_PRED>
9.87339

>  <SOIL_ADSORPTION_COEFFICIENT_KOC_L/KG_OPERA_PRED>
562836

>  <OCTANOL_WATER_PARTITION_LOGP_OPERA_PRED>
3.87106

>  <MELTING_POINT_DEGC_OPERA_PRED>
121.401

>  <VAPOR_PRESSURE_MMHG_OPERA_PRED>
7.04E-08

>  <WATER_SOLUBILITY_MOL/L_OPERA_PRED>
3.42E-05

$$$$
Testosterone
Actelion Java MolfileCreator 2.0

  0  0  0  0  0  0              0 V3000
M  V30 BEGIN CTAB
M  V30 COUNTS 21 24 0 0 0
M  V30 BEGIN ATOM
M  V30 1 O 1.4931 5.9671 0.0 0
M  V30 2 C 1.3886 4.9726 0.0 0
M  V30 3 C 2.1976 4.3848 0.0 0
M  V30 4 C 0.4751 4.5658 0.0 0
M  V30 5 C 2.0931 3.3903 0.0 0
M  V30 6 C 0.3705 3.5713 0.0 0
M  V30 7 C 1.1796 2.9835 0.0 0 CFG=2
M  V30 8 C 2.9021 2.8025 0.0 0
M  V30 9 C 1.075 1.989 0.0 0 CFG=2
M  V30 10 C 0.266 2.5768 0.0 0
M  V30 11 C 2.7976 1.8079 0.0 0
M  V30 12 C 1.884 1.4012 0.0 0 CFG=1
M  V30 13 C 0.1615 1.5823 0.0 0
M  V30 14 C 1.7795 0.4067 0.0 0 CFG=1
M  V30 15 C 0.057 0.5877 0.0 0
M  V30 16 C 0.866 0.0 0.0 0 CFG=2
M  V30 17 C 2.4487 -0.3364 0.0 0
M  V30 18 C 0.9705 -0.9945 0.0 0 CFG=2
M  V30 19 C 0.0 -0.5 0.0 0
M  V30 20 C 1.9487 -1.2024 0.0 0
M  V30 21 O 0.2274 -1.6636 0.0 0
M  V30 END ATOM
M  V30 BEGIN BOND
M  V30 1 2 1 2
M  V30 2 1 2 3
M  V30 3 1 2 4
M  V30 4 2 3 5
M  V30 5 1 4 6
M  V30 6 1 7 5
M  V30 7 1 5 8
M  V30 8 1 9 7
M  V30 9 1 7 10 CFG=3
M  V30 10 1 8 11
M  V30 11 1 12 9
M  V30 12 1 9 13 CFG=3
M  V30 13 1 14 12
M  V30 14 1 13 15
M  V30 15 1 16 14
M  V30 16 1 14 17 CFG=3
M  V30 17 1 18 16
M  V30 18 1 16 19 CFG=3
M  V30 19 1 17 20
M  V30 20 1 18 21 CFG=3
M  V30 21 1 6 7
M  V30 22 1 12 11 CFG=1
M  V30 23 1 15 16
M  V30 24 1 18 20
M  V30 END BOND
M  V30 BEGIN COLLECTION
M  V30 MDLV30/STEABS ATOMS=(6 7 9 12 14 16 18)
M  V30 END COLLECTION
M  V30 END CTAB
M  END
>  <Order (spectra)>
369

>  <NAME>
Testosterone

>  <Molecular Formula>
C19H28O2

>  <Monoisotopic Mass>
288.20893

>  <SMILES>
C[C@]12CC[C@H]3[C@@H](CCC4=CC(=O)CC[C@]34C)[C@@H]1CC[C@@H]2O

>  <InChI>
InChI=1S/C19H28O2/c1-18-9-7-13(20)11-12(18)3-4-14-15-5-6-17(21)19(15,2)10-8-16(14)18/h11,14-17,21H,3-10H2,1-2H3/t14-,15+,16+,17-,18+,19+/m1/s1

>  <InChIKey>
MUMGGOZAMZWBJJ-DYKIIFRCSA-N

>  <Kingdom>
Organic compounds

>  <Superclass>
Lipids and lipid-like molecules

>  <Class>
Steroids and steroid derivatives

>  <Subclass>
Androstane steroids

>  <Parent Level 1>
Androgens and derivatives

>  <Parent Level 2>


>  <Parent Level 3>


>  <cLogP>
3.4962

>  <cLogS>
-4.061

>  <Druglikeness>
1.56

>  <NP-class probability>
0.76

>  <SmilesFragFp 3>


>  <MS_READY_SMILES>
CC12CCC3C(CCC4=CC(=O)CCC34C)C1CCC2O

>  <MS_READY_InChI>
InChI=1S/C19H28O2/c1-18-9-7-13(20)11-12(18)3-4-14-15-5-6-17(21)19(15,2)10-8-16(14)18/h11,14-17,21H,3-10H2,1-2H3

>  <QSAR_READY_SMILES>
CC12CCC3C(CCC4=CC(=O)CCC34C)C1CCC2O

>  <QSAR_READY_InChI>
InChI=1S/C19H28O2/c1-18-9-7-13(20)11-12(18)3-4-14-15-5-6-17(21)19(15,2)10-8-16(14)18/h11,14-17,21H,3-10H2,1-2H3

>  <DTXSID>
DTXSID8022371

>  <DTXCID>
DTXCID302371

>  <CASRN>
58-22-0

>  <EXPOCAST_MEDIAN_EXPOSURE_PREDICTION_MG/KG-BW/DAY>
-

>  <BIOCONCENTRATION_FACTOR_TEST_PRED>
80.5378

>  <BOILING_POINT_DEGC_TEST_PRED>
357.585

>  <48HR_DAPHNIA_LC50_MOL/L_TEST_PRED>
2.07E-05

>  <DENSITY_G/CM^3_TEST_PRED>
1.111

>  <DEVTOX_TEST_PRED>
1.04

>  <96HR_FATHEAD_MINNOW_MOL/L_TEST_PRED>
4.29E-06

>  <FLASH_POINT_DEGC_TEST_PRED>
192.036

>  <MELTING_POINT_DEGC_TEST_PRED>
149.177

>  <AMES_MUTAGENICITY_TEST_PRED>
-0.018

>  <ORAL_RAT_LD50_MOL/KG_TEST_PRED>
0.0135207

>  <SURFACE_TENSION_DYN/CM_TEST_PRED>
43.766

>  <THERMAL_CONDUCTIVITY_MW/(M*K)_TEST_PRED>
-

>  <TETRAHYMENA_PYRIFORMIS_IGC50_MOL/L_TEST_PRED>
-

>  <VISCOSITY_CP_CP_TEST_PRED>
-

>  <VAPOR_PRESSURE_MMHG_TEST_PRED>
2.45E-07

>  <WATER_SOLUBILITY_MOL/L_TEST_PRED>
0.000130317

>  <ATMOSPHERIC_HYDROXYLATION_RATE_(AOH)_CM3/MOLECULE*SEC_OPERA_PRED>
3.99E-11

>  <BIOCONCENTRATION_FACTOR_OPERA_PRED>
55.074

>  <BIODEGRADATION_HALF_LIFE_DAYS_DAYS_OPERA_PRED>
97.3688

>  <BOILING_POINT_DEGC_OPERA_PRED>
295.438

>  <HENRYS_LAW_ATM-M3/MOLE_OPERA_PRED>
7.05E-08

>  <OPERA_KM_DAYS_OPERA_PRED>
3.30417

>  <OCTANOL_AIR_PARTITION_COEFF_LOGKOA_OPERA_PRED>
10.9935

>  <SOIL_ADSORPTION_COEFFICIENT_KOC_L/KG_OPERA_PRED>
142142

>  <OCTANOL_WATER_PARTITION_LOGP_OPERA_PRED>
3.31807

>  <MELTING_POINT_DEGC_OPERA_PRED>
154.925

>  <VAPOR_PRESSURE_MMHG_OPERA_PRED>
1.61E-07

>  <WATER_SOLUBILITY_MOL/L_OPERA_PRED>
9.12E-05

$$$$
2,4,6-Trichlorobiphenyl
Actelion Java MolfileCreator 2.0

  0  0  0  0  0  0              0 V3000
M  V30 BEGIN CTAB
M  V30 COUNTS 15 16 0 0 0
M  V30 BEGIN ATOM
M  V30 1 Cl 1.299 0.0 0.0 0
M  V30 2 C 0.0 -0.75 0.0 0
M  V30 3 C -1.299 0.0 0.0 0
M  V30 4 C 0.0 -2.2499 0.0 0
M  V30 5 C -2.598 -0.7499 0.0 0
M  V30 6 C -1.299 1.5 0.0 0
M  V30 7 C -1.299 -2.9999 0.0 0
M  V30 8 Cl -3.8971 0.0 0.0 0
M  V30 9 C -2.598 -2.2499 0.0 0
M  V30 10 C 0.0 2.2499 0.0 0
M  V30 11 C -2.598 2.25 0.0 0
M  V30 12 C 0.0 3.7499 0.0 0
M  V30 13 C -2.598 3.75 0.0 0
M  V30 14 C -1.299 4.5 0.0 0
M  V30 15 Cl -1.299 6.0 0.0 0
M  V30 END ATOM
M  V30 BEGIN BOND
M  V30 1 1 1 2
M  V30 2 2 2 3
M  V30 3 1 2 4
M  V30 4 1 3 5
M  V30 5 1 3 6
M  V30 6 2 4 7
M  V30 7 1 5 8
M  V30 8 2 5 9
M  V30 9 2 6 10
M  V30 10 1 6 11
M  V30 11 1 10 12
M  V30 12 2 11 13
M  V30 13 2 12 14
M  V30 14 1 14 15
M  V30 15 1 7 9
M  V30 16 1 13 14
M  V30 END BOND
M  V30 END CTAB
M  END
>  <Order (spectra)>
42

>  <NAME>
2,4,6-Trichlorobiphenyl

>  <Molecular Formula>
C12H7Cl3

>  <Monoisotopic Mass>
255.961331

>  <SMILES>
ClC1=CC=C(C=C1)C1=C(Cl)C=CC=C1Cl

>  <InChI>
InChI=1S/C12H7Cl3/c13-9-6-4-8(5-7-9)12-10(14)2-1-3-11(12)15/h1-7H

>  <InChIKey>
IHIDFKLAWYPTKB-UHFFFAOYSA-N

>  <Kingdom>
Organic compounds

>  <Superclass>
Benzenoids

>  <Class>
Benzene and substituted derivatives

>  <Subclass>
Biphenyls and derivatives

>  <Parent Level 1>
Chlorinated biphenyls

>  <Parent Level 2>
Polychlorinated biphenyls

>  <Parent Level 3>


>  <cLogP>
5.1368

>  <cLogS>
-5.91

>  <Druglikeness>
-1.9661

>  <NP-class probability>
0.01

>  <SmilesFragFp 3>


>  <MS_READY_SMILES>
ClC1=CC=C(C=C1)C1=C(Cl)C=CC=C1Cl

>  <MS_READY_InChI>
InChI=1S/C12H7Cl3/c13-9-6-4-8(5-7-9)12-10(14)2-1-3-11(12)15/h1-7H

>  <QSAR_READY_SMILES>
ClC1=CC=C(C=C1)C1=C(Cl)C=CC=C1Cl

>  <QSAR_READY_InChI>
InChI=1S/C12H7Cl3/c13-9-6-4-8(5-7-9)12-10(14)2-1-3-11(12)15/h1-7H

>  <DTXSID>
DTXSID8073500

>  <DTXCID>
DTXCID6039504

>  <CASRN>
38444-77-8

>  <EXPOCAST_MEDIAN_EXPOSURE_PREDICTION_MG/KG-BW/DAY>
7.65E-12

>  <BIOCONCENTRATION_FACTOR_TEST_PRED>
12416.5

>  <BOILING_POINT_DEGC_TEST_PRED>
327.515

>  <48HR_DAPHNIA_LC50_MOL/L_TEST_PRED>
2.26E-07

>  <DENSITY_G/CM^3_TEST_PRED>
1.337

>  <DEVTOX_TEST_PRED>
0.277

>  <96HR_FATHEAD_MINNOW_MOL/L_TEST_PRED>
7.05E-07

>  <FLASH_POINT_DEGC_TEST_PRED>
147.406

>  <MELTING_POINT_DEGC_TEST_PRED>
85.299

>  <AMES_MUTAGENICITY_TEST_PRED>
0.062

>  <ORAL_RAT_LD50_MOL/KG_TEST_PRED>
0.00110408

>  <SURFACE_TENSION_DYN/CM_TEST_PRED>
-

>  <THERMAL_CONDUCTIVITY_MW/(M*K)_TEST_PRED>
124.686

>  <TETRAHYMENA_PYRIFORMIS_IGC50_MOL/L_TEST_PRED>
2.13E-06

>  <VISCOSITY_CP_CP_TEST_PRED>
-

>  <VAPOR_PRESSURE_MMHG_TEST_PRED>
0.000297852

>  <WATER_SOLUBILITY_MOL/L_TEST_PRED>
9.31E-07

>  <ATMOSPHERIC_HYDROXYLATION_RATE_(AOH)_CM3/MOLECULE*SEC_OPERA_PRED>
1.12E-12

>  <BIOCONCENTRATION_FACTOR_OPERA_PRED>
16704

>  <BIODEGRADATION_HALF_LIFE_DAYS_DAYS_OPERA_PRED>
19.212

>  <BOILING_POINT_DEGC_OPERA_PRED>
343.69

>  <HENRYS_LAW_ATM-M3/MOLE_OPERA_PRED>
0.000200279

>  <OPERA_KM_DAYS_OPERA_PRED>
274.151

>  <OCTANOL_AIR_PARTITION_COEFF_LOGKOA_OPERA_PRED>
7.78147

>  <SOIL_ADSORPTION_COEFFICIENT_KOC_L/KG_OPERA_PRED>
55269.9

>  <OCTANOL_WATER_PARTITION_LOGP_OPERA_PRED>
5.74664

>  <MELTING_POINT_DEGC_OPERA_PRED>
83.0507

>  <VAPOR_PRESSURE_MMHG_OPERA_PRED>
0.000239262

>  <WATER_SOLUBILITY_MOL/L_OPERA_PRED>
6.95E-07

$$$$
2,3,4,5,6-Pentabromoethylbenzene
Actelion Java MolfileCreator 2.0

  0  0  0  0  0  0              0 V3000
M  V30 BEGIN CTAB
M  V30 COUNTS 13 13 0 0 0
M  V30 BEGIN ATOM
M  V30 1 Br 6.4951 -3.0 0.0 0
M  V30 2 C 5.1961 -2.2499 0.0 0
M  V30 3 C 5.1961 -0.75 0.0 0
M  V30 4 C 3.8971 -2.9999 0.0 0
M  V30 5 Br 6.4951 0.0 0.0 0
M  V30 6 C 3.8971 0.0 0.0 0
M  V30 7 Br 3.8971 -4.4999 0.0 0
M  V30 8 C 2.598 -2.25 0.0 0
M  V30 9 Br 3.8971 1.5 0.0 0
M  V30 10 C 2.598 -0.75 0.0 0
M  V30 11 Br 1.299 -2.9999 0.0 0
M  V30 12 C 1.299 0.0 0.0 0
M  V30 13 C 0.0 -0.75 0.0 0
M  V30 END ATOM
M  V30 BEGIN BOND
M  V30 1 1 1 2
M  V30 2 2 2 3
M  V30 3 1 2 4
M  V30 4 1 3 5
M  V30 5 1 3 6
M  V30 6 1 4 7
M  V30 7 2 4 8
M  V30 8 1 6 9
M  V30 9 2 6 10
M  V30 10 1 8 11
M  V30 11 1 10 12
M  V30 12 1 12 13
M  V30 13 1 8 10
M  V30 END BOND
M  V30 END CTAB
M  END
>  <Order (spectra)>
113

>  <NAME>
2,3,4,5,6-Pentabromoethylbenzene

>  <Molecular Formula>
C8H5Br5

>  <Monoisotopic Mass>
495.630805

>  <SMILES>
CCC1=C(Br)C(Br)=C(Br)C(Br)=C1Br

>  <InChI>
InChI=1S/C8H5Br5/c1-2-3-4(9)6(11)8(13)7(12)5(3)10/h2H2,1H3

>  <InChIKey>
FIAXCDIQXHJNIX-UHFFFAOYSA-N

>  <Kingdom>
Organic compounds

>  <Superclass>
Benzenoids

>  <Class>
Benzene and substituted derivatives

>  <Subclass>
Halobenzenes

>  <Parent Level 1>
Bromobenzenes

>  <Parent Level 2>


>  <Parent Level 3>


>  <cLogP>
6.0451

>  <cLogS>
-6.289

>  <Druglikeness>
-4.47

>  <NP-class probability>
0.71

>  <SmilesFragFp 3>


>  <MS_READY_SMILES>
CCC1=C(Br)C(Br)=C(Br)C(Br)=C1Br

>  <MS_READY_InChI>
InChI=1S/C8H5Br5/c1-2-3-4(9)6(11)8(13)7(12)5(3)10/h2H2,1H3

>  <QSAR_READY_SMILES>
CCC1=C(Br)C(Br)=C(Br)C(Br)=C1Br

>  <QSAR_READY_InChI>
InChI=1S/C8H5Br5/c1-2-3-4(9)6(11)8(13)7(12)5(3)10/h2H2,1H3

>  <DTXSID>
DTXSID7021782

>  <DTXCID>
DTXCID701782

>  <CASRN>
85-22-3

>  <EXPOCAST_MEDIAN_EXPOSURE_PREDICTION_MG/KG-BW/DAY>
1.45E-07

>  <BIOCONCENTRATION_FACTOR_TEST_PRED>
721.107

>  <BOILING_POINT_DEGC_TEST_PRED>
377.27

>  <48HR_DAPHNIA_LC50_MOL/L_TEST_PRED>
1.17E-07

>  <DENSITY_G/CM^3_TEST_PRED>
2.751

>  <DEVTOX_TEST_PRED>
-

>  <96HR_FATHEAD_MINNOW_MOL/L_TEST_PRED>
8.57E-08

>  <FLASH_POINT_DEGC_TEST_PRED>
170.729

>  <MELTING_POINT_DEGC_TEST_PRED>
174.488

>  <AMES_MUTAGENICITY_TEST_PRED>
-0.002

>  <ORAL_RAT_LD50_MOL/KG_TEST_PRED>
6.82E-05

>  <SURFACE_TENSION_DYN/CM_TEST_PRED>
-

>  <THERMAL_CONDUCTIVITY_MW/(M*K)_TEST_PRED>
102.648

>  <TETRAHYMENA_PYRIFORMIS_IGC50_MOL/L_TEST_PRED>
2.20E-06

>  <VISCOSITY_CP_CP_TEST_PRED>
11.1944

>  <VAPOR_PRESSURE_MMHG_TEST_PRED>
2.96E-07

>  <WATER_SOLUBILITY_MOL/L_TEST_PRED>
5.87E-09

>  <ATMOSPHERIC_HYDROXYLATION_RATE_(AOH)_CM3/MOLECULE*SEC_OPERA_PRED>
1.62E-12

>  <BIOCONCENTRATION_FACTOR_OPERA_PRED>
335.351

>  <BIODEGRADATION_HALF_LIFE_DAYS_DAYS_OPERA_PRED>
11.3238

>  <BOILING_POINT_DEGC_OPERA_PRED>
341.125

>  <HENRYS_LAW_ATM-M3/MOLE_OPERA_PRED>
0.000870523

>  <OPERA_KM_DAYS_OPERA_PRED>
1.04869

>  <OCTANOL_AIR_PARTITION_COEFF_LOGKOA_OPERA_PRED>
8.82765

>  <SOIL_ADSORPTION_COEFFICIENT_KOC_L/KG_OPERA_PRED>
82971.7

>  <OCTANOL_WATER_PARTITION_LOGP_OPERA_PRED>
5.61863

>  <MELTING_POINT_DEGC_OPERA_PRED>
138.398

>  <VAPOR_PRESSURE_MMHG_OPERA_PRED>
0.000965838

>  <WATER_SOLUBILITY_MOL/L_OPERA_PRED>
5.93E-10

$$$$
Terbufos
Actelion Java MolfileCreator 2.0

  0  0  0  0  0  0              0 V3000
M  V30 BEGIN CTAB
M  V30 COUNTS 15 14 0 0 0
M  V30 BEGIN ATOM
M  V30 1 S 3.4641 0.5 0.0 0
M  V30 2 P 3.4641 -0.5 0.0 0
M  V30 3 S 2.598 0.0 0.0 0
M  V30 4 O 4.3301 0.0 0.0 0
M  V30 5 O 3.4641 -1.5 0.0 0
M  V30 6 C 1.732 -0.5 0.0 0
M  V30 7 C 5.1961 -0.5 0.0 0
M  V30 8 C 2.598 -2.0 0.0 0
M  V30 9 S 0.866 0.0 0.0 0
M  V30 10 C 6.0621 0.0 0.0 0
M  V30 11 C 2.598 -3.0 0.0 0
M  V30 12 C 0.0 -0.5 0.0 0
M  V30 13 C 0.4999 -1.366 0.0 0
M  V30 14 C -0.866 -0.9999 0.0 0
M  V30 15 C -0.4999 0.366 0.0 0
M  V30 END ATOM
M  V30 BEGIN BOND
M  V30 1 2 1 2
M  V30 2 1 2 3
M  V30 3 1 2 4
M  V30 4 1 2 5
M  V30 5 1 3 6
M  V30 6 1 4 7
M  V30 7 1 5 8
M  V30 8 1 6 9
M  V30 9 1 7 10
M  V30 10 1 8 11
M  V30 11 1 9 12
M  V30 12 1 12 13
M  V30 13 1 12 14
M  V30 14 1 12 15
M  V30 END BOND
M  V30 END CTAB
M  END
>  <Order (spectra)>
214

>  <NAME>
Terbufos

>  <Molecular Formula>
C9H21O2PS3

>  <Monoisotopic Mass>
288.044127

>  <SMILES>
CCOP(=S)(OCC)SCSC(C)(C)C

>  <InChI>
InChI=1S/C9H21O2PS3/c1-6-10-12(13,11-7-2)15-8-14-9(3,4)5/h6-8H2,1-5H3

>  <InChIKey>
XLNZEKHULJKQBA-UHFFFAOYSA-N

>  <Kingdom>
Organic compounds

>  <Superclass>
Organic acids and derivatives

>  <Class>
Organic dithiophosphoric acids and derivatives

>  <Subclass>
Dithiophosphate O-esters

>  <Parent Level 1>
Dithiophosphate O-esters

>  <Parent Level 2>


>  <Parent Level 3>


>  <cLogP>
4.3685

>  <cLogS>
-4.301

>  <Druglikeness>
-18.095

>  <NP-class probability>
0.85

>  <SmilesFragFp 3>


>  <MS_READY_SMILES>
CCOP(=S)(OCC)SCSC(C)(C)C

>  <MS_READY_InChI>
InChI=1S/C9H21O2PS3/c1-6-10-12(13,11-7-2)15-8-14-9(3,4)5/h6-8H2,1-5H3

>  <QSAR_READY_SMILES>
CCOP(=S)(OCC)SCSC(C)(C)C

>  <QSAR_READY_InChI>
InChI=1S/C9H21O2PS3/c1-6-10-12(13,11-7-2)15-8-14-9(3,4)5/h6-8H2,1-5H3

>  <DTXSID>
DTXSID2022254

>  <DTXCID>
DTXCID702254

>  <CASRN>
13071-79-9

>  <EXPOCAST_MEDIAN_EXPOSURE_PREDICTION_MG/KG-BW/DAY>
1.88E-07

>  <BIOCONCENTRATION_FACTOR_TEST_PRED>
125.893

>  <BOILING_POINT_DEGC_TEST_PRED>
-

>  <48HR_DAPHNIA_LC50_MOL/L_TEST_PRED>
1.29E-08

>  <DENSITY_G/CM^3_TEST_PRED>
1.152

>  <DEVTOX_TEST_PRED>
-0.779

>  <96HR_FATHEAD_MINNOW_MOL/L_TEST_PRED>
3.51E-06

>  <FLASH_POINT_DEGC_TEST_PRED>
146.141

>  <MELTING_POINT_DEGC_TEST_PRED>
-17.094

>  <AMES_MUTAGENICITY_TEST_PRED>
0.005

>  <ORAL_RAT_LD50_MOL/KG_TEST_PRED>
5.78E-06

>  <SURFACE_TENSION_DYN/CM_TEST_PRED>
-

>  <THERMAL_CONDUCTIVITY_MW/(M*K)_TEST_PRED>
-

>  <TETRAHYMENA_PYRIFORMIS_IGC50_MOL/L_TEST_PRED>
-

>  <VISCOSITY_CP_CP_TEST_PRED>
-

>  <VAPOR_PRESSURE_MMHG_TEST_PRED>
0.000148594

>  <WATER_SOLUBILITY_MOL/L_TEST_PRED>
6.25E-05

>  <ATMOSPHERIC_HYDROXYLATION_RATE_(AOH)_CM3/MOLECULE*SEC_OPERA_PRED>
2.42E-11

>  <BIOCONCENTRATION_FACTOR_OPERA_PRED>
64.5379

>  <BIODEGRADATION_HALF_LIFE_DAYS_DAYS_OPERA_PRED>
347.914

>  <BOILING_POINT_DEGC_OPERA_PRED>
315.357

>  <HENRYS_LAW_ATM-M3/MOLE_OPERA_PRED>
4.63E-06

>  <OPERA_KM_DAYS_OPERA_PRED>
1.06163

>  <OCTANOL_AIR_PARTITION_COEFF_LOGKOA_OPERA_PRED>
9.78096

>  <SOIL_ADSORPTION_COEFFICIENT_KOC_L/KG_OPERA_PRED>
660.363

>  <OCTANOL_WATER_PARTITION_LOGP_OPERA_PRED>
4.47814

>  <MELTING_POINT_DEGC_OPERA_PRED>
-29.1609

>  <VAPOR_PRESSURE_MMHG_OPERA_PRED>
0.000317909

>  <WATER_SOLUBILITY_MOL/L_OPERA_PRED>
1.71E-05
